##TITLE=Blood_7
##JCAMPDX= 6.0         $$ Bruker NMR JCAMP-DX V2.0
##DATA TYPE= NMR SPECTRUM
##DATA CLASS= XYDATA
##ORIGIN= Bruker BioSpin GmbH
##OWNER= wiralle
##LONG DATE= 2021/01/23 06:12:07+0000
$$ TopSpin 4.5.0
$$ 2025-03-09 13:39:24.673 +0100  12345@DESKTOP-LHJQKHT
$$ Compression mode = diff/dup
##.OBSERVE FREQUENCY= 600.252821089118
##.OBSERVE NUCLEUS= ^1H
##.ACQUISITION MODE= SIMULTANEOUS (DQD)
##.ACQUISITION SCHEME= undefined
##.AVERAGES= 128
##.DIGITISER RES= 22
##SPECTROMETER/DATA SYSTEM= spect
##.PULSE SEQUENCE= noesygppr1d
##.SOLVENT NAME= Plasma
##.SHIFT REFERENCE= INTERNAL, Plasma, 1, 14.8115
##AUDIT TRAIL= $$ (NUMBER, WHEN, WHO, WHERE, PROCESS, VERSION, WHAT)
$$ ##TITLE= Audit trail, TOPSPIN		Version 3.1
$$ ##JCAMPDX= 5.01
$$ ##ORIGIN= Bruker BioSpin GmbH
$$ ##OWNER= wiralle
$$ $$ C:/Users/wiralle/Desktop/prozAKI/AKI_1_24_035_P_1D_22_01_2021/10/pdata/10/auditp.txt
$$ ##AUDIT TRAIL=  $$ (NUMBER, WHEN, WHO, WHERE, PROCESS, VERSION, WHAT)
(   1,<2021-01-23 07:12:07.537 +0100>,<genomik>,<CZC0399KS1>,<go4>,<TopSpin 3.6.2>,
      <created by zg
	started at 2021-01-23 06:57:09.826 +0100,
	POWCHK enabled, PULCHK disabled,
       configuration hash MD5:
       41 0F E6 B4 96 3C 7B C3 8C 90 28 62 67 23 F4 6E
       data hash MD5: 64K
       19 99 21 6F E2 81 8A 6F 25 1E D7 85 9D 09 AC E4>)
(   2,<2021-01-23 07:12:07.599 +0100>,<genomik>,<CZC0399KS1>,<audit>,<TopSpin 3.6.2>,
      <user comment:
       ICON-NMR User ID: genomik
       data hash MD5: 64K
       19 99 21 6F E2 81 8A 6F 25 1E D7 85 9D 09 AC E4>)
(   3,<2021-01-23 07:12:08.521 +0100>,<genomik>,<CZC0399KS1>,<dirdata>,<TopSpin 3.6.2>,
      <wrpa from 1 10 "AKI_1_24_035_P_1D_22_01_2021" "D:/nmrdata/genomik/nmr"
       data hash MD5: 64K
       19 99 21 6F E2 81 8A 6F 25 1E D7 85 9D 09 AC E4>)
(   4,<2021-03-10 09:27:43.758 +0100>,<wiralle>,<pc58952>,<proc1d>,<TOPSPIN 3.1>,
      <Start of raw data processing
       efp LB = 0.3 FT_mod = 6 PKNL = 1 PHC0 = 64.93745 PHC1 = 1.960938 SI = 128K
       data hash MD5: 128K
       D4 2D 99 F3 A3 A3 8C 7F 77 C5 0D 37 4E CB 57 D9>)
(   5,<2021-03-10 09:27:44.601 +0100>,<wiralle>,<pc58952>,<proc1d>,<TOPSPIN 3.1>,
      <abs ABSG = 5
       data hash MD5: 128K
       1C F0 4A 98 78 6B 9E 70 7A D9 12 40 B7 DD CE A4>)
$$ ##END=
$$
$$ $$ hash MD5
$$ $$ 7C 93 B4 C5 89 32 DE 04 39 8C 91 4F C5 DE B5 98
##$RELAX=
##$BRUKER FILE EXP=format.temp
$$ EDIT_PAR COMMAND FILE
$$
$$ DI_MODE         LONG
$$ ED_ENTRY        ACQU
$$ ORDER           FILE
$$
$$
$$ HEADER		"F2 - Acquisition Parameters"
$$ T_NAME		Date_
$$ 		TYPE	R64
$$ 		CLASS	ACQU
$$ 		SUBRANGE 0.0 50000000
$$ 		REL	"Date_=itodate(DATE)"
$$ 		INV_REL	"DATE=datetoi(Date_,DATE)"
$$ 		FORMAT	"%14.0f"
$$ 		TEXT	" "
$$ END
$$ T_NAME		Time
$$ 		TYPE	R32
$$ 		CLASS	ACQU
$$ 		SUBRANGE 0.0 1000000
$$ 		REL	"Time=itotime(DATE)"
$$ 		INV_REL	"DATE=timetoi(Time,DATE)"
$$ 		FORMAT	"%14.2f h"
$$ 		TEXT	" "
$$ END
$$ NAME		INSTRUM
$$ 		TEXT	" "
$$ END
$$ NAME		PROBHD
$$ 		FORMAT	"%14.14s"
$$ 		TEXT	" "
$$ END
$$ NAME		PULPROG
$$ 		TEXT	" "
$$ END
$$ NAME		TD
$$ 		TEXT	" "
$$ END
$$ NAME		SOLVENT
$$ 		TEXT	" "
$$ END
$$ NAME		NS
$$ 		TEXT	" "
$$ END
$$ NAME		DS
$$ 		TEXT	" "
$$ END
$$ T_NAME		SWH
$$ 		TYPE	R32
$$ 		CLASS	ACQU
$$ 		SUBRANGE 0.0 1e8
$$ 		REL	"SWH=SW*SFO1"
$$ 		INV_REL "SW=SWH/SFO1"
$$ 		UNIT	"Hz"
$$ 		FORMAT	"%14.3f Hz"
$$ 		TEXT	" "
$$ END
$$ T_NAME          FIDRES
$$                 TYPE    R32
$$                 CLASS   ACQU
$$                 SUBRANGE 0.0 100000
$$                 REL     "FIDRES=2*SW*SFO1/TD"
$$                 INV_REL "TD = nextpow(2*SW*SFO1/FIDRES)"
$$ 		UNIT	"Hz"
$$ 		FORMAT	"%14.6f Hz"
$$ 		TEXT	" "
$$ END
$$ T_NAME          AQ
$$ 		TYPE	R32
$$ 		CLASS	ACQU
$$ 		SUBRANGE 0.0 1000
$$ 		REL	"AQ=aqcalc(SW,SFO1,TD,DIGTYP)"
$$ 		INV_REL	"TD=tdcalc(SW,SFO1,1.0e6*AQ,DIGTYP)"
$$ 		UNIT	"sec"
$$ 		FORMAT	"%14.7f sec"
$$ 		TEXT	" "
$$ END
$$ NAME		RG
$$ 		TEXT	" "
$$ END
$$ T_NAME          DW
$$ 		TYPE	R32
$$ 		CLASS	ACQU
$$ 		SUBRANGE 0.0 1000000
$$ 		REL	"DW=1/(2*SW*SFO1)"
$$ 		INV_REL	"SW=1000000/(2*(0.005+DW)*SFO1)"
$$ 		UNIT	"usec"
$$ 		FORMAT	"%14.3lf usec"
$$ 		TEXT	" "
$$ END
$$ NAME		DE
$$ 		FORMAT	"%14.2f usec"
$$ 		TEXT	" "
$$ END
$$ NAME		TE
$$ 		FORMAT	"%14.1f K"
$$ 		TEXT	" "
$$ END
$$ T_NAME		D1
$$ 		TYPE	R32
$$ 		CLASS	ACQU
$$ 		SUBRANGE 0.0 1e38
$$ 		REL	"D1=D[1]"
$$ 		INV_REL	"D[1]=D1"
$$ 		UNIT	"sec"
$$ 		FORMAT	"%14.8f sec"
$$ 		TEXT	" "
$$ END
$$ T_NAME		D8
$$ 		TYPE	R32
$$ 		CLASS	ACQU
$$ 		SUBRANGE 0.0 1e38
$$ 		REL	"D8=D[8]"
$$ 		INV_REL	"D[8]=D8"
$$ 		UNIT	"sec"
$$ 		FORMAT	"%14.8f sec"
$$ 		TEXT	" "
$$ END
$$ T_NAME		D12
$$ 		TYPE	R32
$$ 		CLASS	ACQU
$$ 		SUBRANGE 0.0 1e38
$$ 		REL	"D12=D[12]"
$$ 		INV_REL	"D[12]=D12"
$$ 		UNIT	"sec"
$$ 		FORMAT	"%14.8f sec"
$$ 		TEXT	" "
$$ END
$$ T_NAME		D16
$$ 		TYPE	R32
$$ 		CLASS	ACQU
$$ 		SUBRANGE 0.0 1e38
$$ 		REL	"D16=D[16]"
$$ 		INV_REL	"D[16]=D16"
$$ 		UNIT	"sec"
$$ 		FORMAT	"%14.8f sec"
$$ 		TEXT	" "
$$ END
$$ NAME		TD0
$$ 		TEXT	" "
$$ END
$$ NAME		ZGOPTNS
$$ 		TEXT	" "
$$ END
$$ NAME		SFO1
$$ 		FORMAT	"%14.7f MHz"
$$ 		TEXT	" "
$$ END
$$ NAME		NUC1
$$ 		NONEDIT
$$ 		TEXT	" "
$$ END
$$ T_NAME		P0
$$ 		TYPE	R32
$$ 		CLASS	ACQU
$$ 		SUBRANGE 0.0 1.0e10
$$ 		REL	"P0=P[0]"
$$ 		INV_REL	"P[0]=P0"
$$ 		UNIT	"usec"
$$ 		FORMAT	"%14.2f usec"
$$ 		TEXT	" "
$$ END
$$ T_NAME		P1
$$ 		TYPE	R32
$$ 		CLASS	ACQU
$$ 		SUBRANGE 0.0 1.0e10
$$ 		REL	"P1=P[1]"
$$ 		INV_REL	"P[1]=P1"
$$ 		UNIT	"usec"
$$ 		FORMAT	"%14.2f usec"
$$ 		TEXT	" "
$$ END
$$ T_NAME		PLW1
$$ 		TYPE	R32
$$ 		CLASS	ACQU
$$ 		REL	"PLW1=PLW[1]"
$$ 		INV_REL	"PLW[1]=PLW1"
$$ 		UNIT	"W"
$$ 		FORMAT	"%14.8f W"
$$ 		TEXT	"power PLW1 "
$$ END
$$ T_NAME		PLW9
$$ 		TYPE	R32
$$ 		CLASS	ACQU
$$ 		REL	"PLW9=PLW[9]"
$$ 		INV_REL	"PLW[9]=PLW9"
$$ 		UNIT	"W"
$$ 		FORMAT	"%14.8f W"
$$ 		TEXT	"power PLW9 "
$$ END
$$ NAME		GPNAM[1]
$$ 		TEXT	" "
$$ END
$$ T_NAME		GPZ1
$$ 		TYPE	R32
$$ 		CLASS	ACQU
$$ 		SUBRANGE -100.0 100.0
$$ 		REL	"GPZ1=GPZ[1]"
$$ 		INV_REL	"GPZ[1]=GPZ1"
$$ 		UNIT	"%"
$$ 		FORMAT	"%14.2f %"
$$ 		TEXT	" "
$$ END
$$ NAME		GPNAM[2]
$$ 		TEXT	" "
$$ END
$$ T_NAME		GPZ2
$$ 		TYPE	R32
$$ 		CLASS	ACQU
$$ 		SUBRANGE -100.0 100.0
$$ 		REL	"GPZ2=GPZ[2]"
$$ 		INV_REL	"GPZ[2]=GPZ2"
$$ 		UNIT	"%"
$$ 		FORMAT	"%14.2f %"
$$ 		TEXT	" "
$$ END
$$ T_NAME		P16
$$ 		TYPE	R32
$$ 		CLASS	ACQU
$$ 		SUBRANGE 0.0 1.0e10
$$ 		REL	"P16=P[16]"
$$ 		INV_REL	"P[16]=P16"
$$ 		UNIT	"usec"
$$ 		FORMAT	"%14.2f usec"
$$ 		TEXT	" "
$$ END
##$RELAX=
##$BRUKER FILE EXP=fq1list
$$ O 600.252821
$$ -10000000
$$ -9929688
$$ -9859375
$$ -9789063
$$ -9718750
$$ -9648438
$$ -9578125
$$ -9507813
$$ -9437500
$$ -9367188
$$ -9296875
$$ -9226563
$$ -9156250
$$ -9085938
$$ -9015625
$$ -8945313
$$ -8875000
$$ -8804688
$$ -8734375
$$ -8664063
$$ -8593750
$$ -8523438
$$ -8453125
$$ -8382813
$$ -8312500
$$ -8242188
$$ -8171875
$$ -8101563
$$ -8031250
$$ -7960938
$$ -7890625
$$ -7820313
$$ -7750000
$$ -7679688
$$ -7609375
$$ -7539063
$$ -7468750
$$ -7398438
$$ -7328125
$$ -7257813
$$ -7187500
$$ -7117188
$$ -7046875
$$ -6976563
$$ -6906250
$$ -6835938
$$ -6765625
$$ -6695313
$$ -6625000
$$ -6554688
$$ -6484375
$$ -6414063
$$ -6343750
$$ -6273438
$$ -6203125
$$ -6132813
$$ -6062500
$$ -5992188
$$ -5921875
$$ -5851563
$$ -5781250
$$ -5710938
$$ -5640625
$$ -5570313
$$ -5500000
$$ -5429688
$$ -5359375
$$ -5289063
$$ -5218750
$$ -5148438
$$ -5078125
$$ -5007813
$$ -4937500
$$ -4867188
$$ -4796875
$$ -4726563
$$ -4656250
$$ -4585938
$$ -4515625
$$ -4445313
$$ -4375000
$$ -4304688
$$ -4234375
$$ -4164063
$$ -4093750
$$ -4023438
$$ -3953125
$$ -3882813
$$ -3812500
$$ -3742188
$$ -3671875
$$ -3601563
$$ -3531250
$$ -3460938
$$ -3390625
$$ -3320313
$$ -3250000
$$ -3179688
$$ -3109375
$$ -3039063
$$ -2968750
$$ -2898438
$$ -2828125
$$ -2757813
$$ -2687500
$$ -2617188
$$ -2546875
$$ -2476563
$$ -2406250
$$ -2335938
$$ -2265625
$$ -2195313
$$ -2125000
$$ -2054688
$$ -1984375
$$ -1914063
$$ -1843750
$$ -1773438
$$ -1703125
$$ -1632813
$$ -1562500
$$ -1492188
$$ -1421875
$$ -1351563
$$ -1281250
$$ -1210938
$$ -1140625
$$ -1070313
$$ -1000000
$$  -992157
$$  -984314
$$  -976471
$$  -968627
$$  -960784
$$  -952941
$$  -945098
$$  -937255
$$  -929412
$$  -921569
$$  -913725
$$  -905882
$$  -898039
$$  -890196
$$  -882353
$$  -874510
$$  -866667
$$  -858824
$$  -850980
$$  -843137
$$  -835294
$$  -827451
$$  -819608
$$  -811765
$$  -803922
$$  -796078
$$  -788235
$$  -780392
$$  -772549
$$  -764706
$$  -756863
$$  -749020
$$  -741176
$$  -733333
$$  -725490
$$  -717647
$$  -709804
$$  -701961
$$  -694118
$$  -686275
$$  -678431
$$  -670588
$$  -662745
$$  -654902
$$  -647059
$$  -639216
$$  -631373
$$  -623529
$$  -615686
$$  -607843
$$  -600000
$$  -592157
$$  -584314
$$  -576471
$$  -568627
$$  -560784
$$  -552941
$$  -545098
$$  -537255
$$  -529412
$$  -521569
$$  -513725
$$  -505882
$$  -498039
$$  -490196
$$  -482353
$$  -474510
$$  -466667
$$  -458824
$$  -450980
$$  -443137
$$  -435294
$$  -427451
$$  -419608
$$  -411765
$$  -403922
$$  -396078
$$  -388235
$$  -380392
$$  -372549
$$  -364706
$$  -356863
$$  -349020
$$  -341176
$$  -333333
$$  -325490
$$  -317647
$$  -309804
$$  -301961
$$  -294118
$$  -286275
$$  -278431
$$  -270588
$$  -262745
$$  -254902
$$  -247059
$$  -239216
$$  -231373
$$  -223529
$$  -215686
$$  -207843
$$  -200000
$$  -192157
$$  -184314
$$  -176471
$$  -168627
$$  -160784
$$  -152941
$$  -145098
$$  -137255
$$  -129412
$$  -121569
$$  -113725
$$  -105882
$$   -98039
$$   -90196
$$   -82353
$$   -74510
$$   -66667
$$   -58824
$$   -50980
$$   -43137
$$   -35294
$$   -27451
$$   -19608
$$   -11765
$$    -3922
$$     3922
$$    11765
$$    19608
$$    27451
$$    35294
$$    43137
$$    50980
$$    58824
$$    66667
$$    74510
$$    82353
$$    90196
$$    98039
$$   105882
$$   113725
$$   121569
$$   129412
$$   137255
$$   145098
$$   152941
$$   160784
$$   168627
$$   176471
$$   184314
$$   192157
$$   200000
$$   207843
$$   215686
$$   223529
$$   231373
$$   239216
$$   247059
$$   254902
$$   262745
$$   270588
$$   278431
$$   286275
$$   294118
$$   301961
$$   309804
$$   317647
$$   325490
$$   333333
$$   341176
$$   349020
$$   356863
$$   364706
$$   372549
$$   380392
$$   388235
$$   396078
$$   403922
$$   411765
$$   419608
$$   427451
$$   435294
$$   443137
$$   450980
$$   458824
$$   466667
$$   474510
$$   482353
$$   490196
$$   498039
$$   505882
$$   513725
$$   521569
$$   529412
$$   537255
$$   545098
$$   552941
$$   560784
$$   568627
$$   576471
$$   584314
$$   592157
$$   600000
$$   607843
$$   615686
$$   623529
$$   631373
$$   639216
$$   647059
$$   654902
$$   662745
$$   670588
$$   678431
$$   686275
$$   694118
$$   701961
$$   709804
$$   717647
$$   725490
$$   733333
$$   741176
$$   749020
$$   756863
$$   764706
$$   772549
$$   780392
$$   788235
$$   796078
$$   803922
$$   811765
$$   819608
$$   827451
$$   835294
$$   843137
$$   850980
$$   858824
$$   866667
$$   874510
$$   882353
$$   890196
$$   898039
$$   905882
$$   913725
$$   921569
$$   929412
$$   937255
$$   945098
$$   952941
$$   960784
$$   968627
$$   976471
$$   984314
$$   992157
$$  1000000
$$  1070312
$$  1140625
$$  1210937
$$  1281250
$$  1351562
$$  1421875
$$  1492187
$$  1562500
$$  1632812
$$  1703125
$$  1773437
$$  1843750
$$  1914062
$$  1984375
$$  2054687
$$  2125000
$$  2195312
$$  2265625
$$  2335937
$$  2406250
$$  2476562
$$  2546875
$$  2617187
$$  2687500
$$  2757812
$$  2828125
$$  2898437
$$  2968750
$$  3039062
$$  3109375
$$  3179687
$$  3250000
$$  3320312
$$  3390625
$$  3460937
$$  3531250
$$  3601562
$$  3671875
$$  3742187
$$  3812500
$$  3882812
$$  3953125
$$  4023437
$$  4093750
$$  4164062
$$  4234375
$$  4304687
$$  4375000
$$  4445312
$$  4515625
$$  4585937
$$  4656250
$$  4726562
$$  4796875
$$  4867187
$$  4937500
$$  5007812
$$  5078125
$$  5148437
$$  5218750
$$  5289062
$$  5359375
$$  5429687
$$  5500000
$$  5570312
$$  5640625
$$  5710937
$$  5781250
$$  5851562
$$  5921875
$$  5992187
$$  6062500
$$  6132812
$$  6203125
$$  6273437
$$  6343750
$$  6414062
$$  6484375
$$  6554687
$$  6625000
$$  6695312
$$  6765625
$$  6835937
$$  6906250
$$  6976562
$$  7046875
$$  7117187
$$  7187500
$$  7257812
$$  7328125
$$  7398437
$$  7468750
$$  7539062
$$  7609375
$$  7679687
$$  7750000
$$  7820312
$$  7890625
$$  7960937
$$  8031250
$$  8101562
$$  8171875
$$  8242187
$$  8312500
$$  8382812
$$  8453125
$$  8523437
$$  8593750
$$  8664062
$$  8734375
$$  8804687
$$  8875000
$$  8945312
$$  9015625
$$  9085937
$$  9156250
$$  9226562
$$  9296875
$$  9367187
$$  9437500
$$  9507812
$$  9578125
$$  9648437
$$  9718750
$$  9789062
$$  9859375
$$  9929687
$$ 10000000
##$RELAX=
##$BRUKER FILE EXP=gpnam1
$$ ##TITLE= SmoothedChirp Amplitide
$$ ##JCAMP-DX= 5.00 Bruker JCAMP library
$$ ##DATA TYPE= Shape Data
$$ ##ORIGIN= Bruker BioSpin GmbH
$$ ##OWNER= <demo>
$$ ##DATE= 2004/09/06
$$ ##TIME= 16:28:02
$$ ##$SHAPE_PARAMETERS= Type: SmoothedSquare
$$ ##MINX= 0.000000E00
$$ ##MAXX= 1.000000E02
$$ ##MINY= 0.000000E00
$$ ##MAXY= 1.000000E00
$$ ##$SHAPE_EXMODE= Gradient
$$ ##$SHAPE_TOTROT= 0.000000E00
$$ ##$SHAPE_TYPE= None
$$ ##$SHAPE_USER_DEF=
$$ ##$SHAPE_REPHFAC=
$$ ##$SHAPE_BWFAC= 0.000000E00
$$ ##$SHAPE_BWFAC50=
$$ ##$SHAPE_INTEGFAC= 9.000000E-01
$$ ##$SHAPE_MODE= 0
$$ ##NPOINTS= 100
$$ ##XYDATA= (X++(Y..Y))
$$ 0.000000E00
$$ 3.015369E-02
$$ 1.169778E-01
$$ 2.500000E-01
$$ 4.131759E-01
$$ 5.868241E-01
$$ 7.500000E-01
$$ 8.830222E-01
$$ 9.698463E-01
$$ 1.000000E00
$$ 1.000000E00
$$ 1.000000E00
$$ 1.000000E00
$$ 1.000000E00
$$ 1.000000E00
$$ 1.000000E00
$$ 1.000000E00
$$ 1.000000E00
$$ 1.000000E00
$$ 1.000000E00
$$ 1.000000E00
$$ 1.000000E00
$$ 1.000000E00
$$ 1.000000E00
$$ 1.000000E00
$$ 1.000000E00
$$ 1.000000E00
$$ 1.000000E00
$$ 1.000000E00
$$ 1.000000E00
$$ 1.000000E00
$$ 1.000000E00
$$ 1.000000E00
$$ 1.000000E00
$$ 1.000000E00
$$ 1.000000E00
$$ 1.000000E00
$$ 1.000000E00
$$ 1.000000E00
$$ 1.000000E00
$$ 1.000000E00
$$ 1.000000E00
$$ 1.000000E00
$$ 1.000000E00
$$ 1.000000E00
$$ 1.000000E00
$$ 1.000000E00
$$ 1.000000E00
$$ 1.000000E00
$$ 1.000000E00
$$ 1.000000E00
$$ 1.000000E00
$$ 1.000000E00
$$ 1.000000E00
$$ 1.000000E00
$$ 1.000000E00
$$ 1.000000E00
$$ 1.000000E00
$$ 1.000000E00
$$ 1.000000E00
$$ 1.000000E00
$$ 1.000000E00
$$ 1.000000E00
$$ 1.000000E00
$$ 1.000000E00
$$ 1.000000E00
$$ 1.000000E00
$$ 1.000000E00
$$ 1.000000E00
$$ 1.000000E00
$$ 1.000000E00
$$ 1.000000E00
$$ 1.000000E00
$$ 1.000000E00
$$ 1.000000E00
$$ 1.000000E00
$$ 1.000000E00
$$ 1.000000E00
$$ 1.000000E00
$$ 1.000000E00
$$ 1.000000E00
$$ 1.000000E00
$$ 1.000000E00
$$ 1.000000E00
$$ 1.000000E00
$$ 1.000000E00
$$ 1.000000E00
$$ 1.000000E00
$$ 1.000000E00
$$ 1.000000E00
$$ 1.000000E00
$$ 9.698463E-01
$$ 8.830222E-01
$$ 7.500000E-01
$$ 5.868241E-01
$$ 4.131759E-01
$$ 2.500000E-01
$$ 1.169778E-01
$$ 3.015369E-02
$$ 0.000000E00
$$ ##END
##$RELAX=
##$BRUKER FILE EXP=gpnam2
$$ ##TITLE= SmoothedChirp Amplitide
$$ ##JCAMP-DX= 5.00 Bruker JCAMP library
$$ ##DATA TYPE= Shape Data
$$ ##ORIGIN= Bruker BioSpin GmbH
$$ ##OWNER= <demo>
$$ ##DATE= 2004/09/06
$$ ##TIME= 16:28:02
$$ ##$SHAPE_PARAMETERS= Type: SmoothedSquare
$$ ##MINX= 0.000000E00
$$ ##MAXX= 1.000000E02
$$ ##MINY= 0.000000E00
$$ ##MAXY= 1.000000E00
$$ ##$SHAPE_EXMODE= Gradient
$$ ##$SHAPE_TOTROT= 0.000000E00
$$ ##$SHAPE_TYPE= None
$$ ##$SHAPE_USER_DEF=
$$ ##$SHAPE_REPHFAC=
$$ ##$SHAPE_BWFAC= 0.000000E00
$$ ##$SHAPE_BWFAC50=
$$ ##$SHAPE_INTEGFAC= 9.000000E-01
$$ ##$SHAPE_MODE= 0
$$ ##NPOINTS= 100
$$ ##XYDATA= (X++(Y..Y))
$$ 0.000000E00
$$ 3.015369E-02
$$ 1.169778E-01
$$ 2.500000E-01
$$ 4.131759E-01
$$ 5.868241E-01
$$ 7.500000E-01
$$ 8.830222E-01
$$ 9.698463E-01
$$ 1.000000E00
$$ 1.000000E00
$$ 1.000000E00
$$ 1.000000E00
$$ 1.000000E00
$$ 1.000000E00
$$ 1.000000E00
$$ 1.000000E00
$$ 1.000000E00
$$ 1.000000E00
$$ 1.000000E00
$$ 1.000000E00
$$ 1.000000E00
$$ 1.000000E00
$$ 1.000000E00
$$ 1.000000E00
$$ 1.000000E00
$$ 1.000000E00
$$ 1.000000E00
$$ 1.000000E00
$$ 1.000000E00
$$ 1.000000E00
$$ 1.000000E00
$$ 1.000000E00
$$ 1.000000E00
$$ 1.000000E00
$$ 1.000000E00
$$ 1.000000E00
$$ 1.000000E00
$$ 1.000000E00
$$ 1.000000E00
$$ 1.000000E00
$$ 1.000000E00
$$ 1.000000E00
$$ 1.000000E00
$$ 1.000000E00
$$ 1.000000E00
$$ 1.000000E00
$$ 1.000000E00
$$ 1.000000E00
$$ 1.000000E00
$$ 1.000000E00
$$ 1.000000E00
$$ 1.000000E00
$$ 1.000000E00
$$ 1.000000E00
$$ 1.000000E00
$$ 1.000000E00
$$ 1.000000E00
$$ 1.000000E00
$$ 1.000000E00
$$ 1.000000E00
$$ 1.000000E00
$$ 1.000000E00
$$ 1.000000E00
$$ 1.000000E00
$$ 1.000000E00
$$ 1.000000E00
$$ 1.000000E00
$$ 1.000000E00
$$ 1.000000E00
$$ 1.000000E00
$$ 1.000000E00
$$ 1.000000E00
$$ 1.000000E00
$$ 1.000000E00
$$ 1.000000E00
$$ 1.000000E00
$$ 1.000000E00
$$ 1.000000E00
$$ 1.000000E00
$$ 1.000000E00
$$ 1.000000E00
$$ 1.000000E00
$$ 1.000000E00
$$ 1.000000E00
$$ 1.000000E00
$$ 1.000000E00
$$ 1.000000E00
$$ 1.000000E00
$$ 1.000000E00
$$ 1.000000E00
$$ 9.698463E-01
$$ 8.830222E-01
$$ 7.500000E-01
$$ 5.868241E-01
$$ 4.131759E-01
$$ 2.500000E-01
$$ 1.169778E-01
$$ 3.015369E-02
$$ 0.000000E00
$$ ##END
##$RELAX=
##$BRUKER FILE EXP=scon2
$$ ##TITLE= Parameter file, TopSpin 3.6.2
$$ ##JCAMPDX= 5.0
$$ ##DATATYPE= Parameter Values
$$ ##NPOINTS= 1	$$ modification sequence number
$$ ##ORIGIN= Bruker BioSpin GmbH
$$ ##OWNER= genomik
$$ $$ 2021-01-23 06:57:09.764 +0100  genomik@CZC0399KS1
$$ $$ D:/nmrdata/genomik/nmr/AKI_1_24_035_P_1D_22_01_2021/10/scon2
$$ $$ process C:\Bruker\TopSpin3.6.2\prog\mod\go4.exe
$$ ##$BLKTR= (0..19)
$$ 3 3 3 3 3 3 3 3 3 3 3 3 3 3 3 3 3 3 3 3
$$ ##$DE1= 4.5
$$ ##$DEADC= 0.5
$$ ##$DEPA= 4.5
$$ ##$DERX= 1.5
$$ ##$FILCOR= 0.58
$$ ##$GRADCHAN= 0
$$ ##$GRADPRE= (0..1)
$$ 10 10
$$ ##$HD_BLKTR= (0..19)
$$ 1 1 1 1 1 1 1 1 1 1 1 1 1 1 1 1 1 1 1 1
$$ ##$HD_DE1= 5
$$ ##$HD_DEADC= 0
$$ ##$HD_DEPA= 2.5
$$ ##$HD_DERX= 0
$$ ##END=
##$RELAX=
##$BRUKER FILE EXP=acqum
$$ ##TITLE= Parameter file, TopSpin 3.6.2
$$ ##JCAMPDX= 5.0
$$ ##DATATYPE= Parameter Values
$$ ##NPOINTS= 1	$$ modification sequence number
$$ ##ORIGIN= Bruker BioSpin GmbH
$$ ##OWNER= genomik
$$ $$ 2021-01-23 06:43:54.201 +0100  genomik@CZC0399KS1
$$ $$ D:/nmrdata/genomik/nmr/AKI_1_24_035_P_1D_22_01_2021/10/acqum
$$ $$ process C:\Bruker\TopSpin3.6.2\prog\mod\xwish3.exe
$$ ##$COMMENT= <>
$$ ##$ECF= 1
$$ ##$ECHOLST= (0..15)
$$ 1 1 1 1 1 1 1 1 1 1 1 1 1 1 1 1
$$ ##$ECOLLST= (0..15)
$$ 1 1 1 1 1 1 1 1 1 1 1 1 1 1 1 1
$$ ##$FLIPA= 0
$$ ##$FOV1= 0
$$ ##$FOV2= 0
$$ ##$FOV3= 0
$$ ##$FRARE= 1
$$ ##$HEADER= <>
$$ ##$INSTIT= <>
$$ ##$METHOD= <>
$$ ##$NECHOES= 1
$$ ##$NPROJEC= 32
$$ ##$NSLICES= 32
$$ ##$PATPOS= 0
$$ ##$RUNEXAM= -1
$$ ##$SDIST= 1
$$ ##$SOANGLE= 0
$$ ##$SORIENT= 0
$$ ##$SOT= <>
$$ ##$SPOS= 0
$$ ##$SPOSDIR= <>
$$ ##$STHICK= 3
$$ ##$T2DIST= 30
$$ ##$TINV= 50
$$ ##$TREC= 2700
$$ ##$TREP= 3000
$$ ##$TSCAN= 50000
$$ ##END=
##$RELAX=
##$BRUKER FILE EXP=prosol_History
##$RELAX=
##$BRUKER FILE EXP=pulseprogram
$$ # 1 "C:/Bruker/TopSpin3.6.2/exp/stan/nmr/lists/pp/noesygppr1d"
$$ ;noesygppr1d
$$ ;avance-version (12/01/11)
$$ ;with presaturation during relaxation delay and mixing time
$$ ;   and spoil gradient
$$ ;
$$ ;$CLASS=HighRes
$$ ;$DIM=1D
$$ ;$TYPE=
$$ ;$SUBTYPE=
$$ ;$COMMENT=
$$ ;$RECOMMEND=y
$$
$$
$$ # 1 "C:/Bruker/TopSpin3.6.2/exp/stan/nmr/lists/pp/Avance.incl" 1
$$ ;Avance3.incl
$$ ;   for AV III
$$ ;
$$ ;avance-version (13/06/17)
$$ ;
$$ ;$CLASS=HighRes Incl
$$ ;$COMMENT=
$$ # 169 "C:/Bruker/TopSpin3.6.2/exp/stan/nmr/lists/pp/Avance.incl"
$$ ;$Id: Avance3.incl,v 1.10.2.2 2013/08/30 09:43:33 ber Exp $
$$ # 14 "C:/Bruker/TopSpin3.6.2/exp/stan/nmr/lists/pp/noesygppr1d" 2
$$
$$ # 1 "C:/Bruker/TopSpin3.6.2/exp/stan/nmr/lists/pp/Grad.incl" 1
$$ ;Grad2.incl  -  include file for Gradient Spectroscopy
$$ ;   for TCU3
$$ ;
$$ ;avance-version (07/01/17)
$$ ;
$$ ;$CLASS=HighRes Incl
$$ ;$COMMENT=
$$
$$ # 27 "C:/Bruker/TopSpin3.6.2/exp/stan/nmr/lists/pp/Grad.incl"
$$ define list<gradient> EA=<EA>
$$
$$
$$ # 31 "C:/Bruker/TopSpin3.6.2/exp/stan/nmr/lists/pp/Grad.incl"
$$ ;$Id: Grad2.incl,v 1.14 2012/01/31 17:49:21 ber Exp $
$$ # 15 "C:/Bruker/TopSpin3.6.2/exp/stan/nmr/lists/pp/noesygppr1d" 2
$$
$$
$$ # 18 "C:/Bruker/TopSpin3.6.2/exp/stan/nmr/lists/pp/noesygppr1d"
$$ "d12=20u"
$$
$$
$$ "acqt0=-p0*2/3.1416"
$$ # 1 "mc_line 24 file C:/Bruker/TopSpin3.6.2/exp/stan/nmr/lists/pp/noesygppr1d exp. def. part of mc cmd. before ze"
$$ ; dimension 1D; AQ_mode
$$ define delay MCWRK
$$ define delay MCREST
$$ "MCREST = 30m - 30m"
$$ "MCWRK = 0.333333*30m"
$$
$$     dccorr
$$ # 24 "C:/Bruker/TopSpin3.6.2/exp/stan/nmr/lists/pp/noesygppr1d"
$$ # 24 "C:/Bruker/TopSpin3.6.2/exp/stan/nmr/lists/pp/noesygppr1d"
$$ 1 ze
$$ # 1 "mc_line 24 file C:/Bruker/TopSpin3.6.2/exp/stan/nmr/lists/pp/noesygppr1d exp. def. of mc cmd. after ze"
$$ # 25 "C:/Bruker/TopSpin3.6.2/exp/stan/nmr/lists/pp/noesygppr1d"
$$ # 1 "mc_line 25 file C:/Bruker/TopSpin3.6.2/exp/stan/nmr/lists/pp/noesygppr1d exp. start label for mc cmd."
$$ 2 MCWRK  * 2
$$ LBLF0, MCWRK
$$   MCREST
$$ # 26 "C:/Bruker/TopSpin3.6.2/exp/stan/nmr/lists/pp/noesygppr1d"
$$
$$
$$   4u setnmr3^0 setnmr0^34^32^33 ctrlgrad 7
$$ # 33 "C:/Bruker/TopSpin3.6.2/exp/stan/nmr/lists/pp/noesygppr1d"
$$   d12 pl9:f1
$$   d1 cw:f1 ph29
$$   4u do:f1
$$   50u setnmr3|0 setnmr0|34|32|33 ctrlgrad 0
$$   p16:gp1
$$   d16 pl1:f1
$$   p1 ph1
$$   4u
$$   p1 ph2
$$   d12 pl9:f1
$$   d8 cw:f1
$$   4u do:f1
$$   p16:gp2
$$   d16 pl1:f1
$$
$$
$$   4u
$$ # 54 "C:/Bruker/TopSpin3.6.2/exp/stan/nmr/lists/pp/noesygppr1d"
$$   p0 ph3
$$   go=2 ph31
$$ # 1 "mc_line 56 file C:/Bruker/TopSpin3.6.2/exp/stan/nmr/lists/pp/noesygppr1d exp. mc cmd. in line"
$$   MCWRK wr #0
$$   MCWRK zd
$$   lo to LBLF0 times td0
$$
$$ # 57 "C:/Bruker/TopSpin3.6.2/exp/stan/nmr/lists/pp/noesygppr1d"
$$
$$
$$   4u setnmr3^0 setnmr0^34^32^33 ctrlgrad 7
$$ # 64 "C:/Bruker/TopSpin3.6.2/exp/stan/nmr/lists/pp/noesygppr1d"
$$ exit
$$
$$
$$ ph1=0 2
$$ ph2=0 0 0 0 0 0 0 0 2 2 2 2 2 2 2 2
$$ ph3=0 0 2 2 1 1 3 3
$$ ph29=0
$$ ph31=0 2 2 0 1 3 3 1 2 0 0 2 3 1 1 3
$$ # 74 "C:/Bruker/TopSpin3.6.2/exp/stan/nmr/lists/pp/noesygppr1d"
$$ ;pl1 : f1 channel - power level for pulse (default)
$$ ;pl9 : f1 channel - power level for presaturation
$$ ;p0 : for any flip angle
$$ ;p1 : f1 channel -  90 degree high power pulse
$$ ;p16: homospoil/gradient pulse
$$ ;d1 : relaxation delay; 1-5 * T1
$$ ;d8 : mixing time
$$ ;d12: delay for power switching                      [20 usec]
$$ ;d16: delay for homospoil/gradient recovery
$$ ;ns: 8 * n, total number of scans: NS * TD0
$$ ;ds: 4
$$
$$
$$ ;use gradient ratio:    gp 1 : gp 2
$$ ;                         50 :  -10
$$ # 90 "C:/Bruker/TopSpin3.6.2/exp/stan/nmr/lists/pp/noesygppr1d"
$$ ;for z-only gradients:
$$ ;gpz1: 50%
$$ ;gpz2: -10%
$$
$$ ;use gradient files:
$$ ;gpnam1: SMSQ10.100
$$ ;gpnam2: SMSQ10.100
$$
$$ # 100 "C:/Bruker/TopSpin3.6.2/exp/stan/nmr/lists/pp/noesygppr1d"
$$                                           ;preprocessor-flags-start
$$ ;1: for setnmr3^0 setnmr0^34^32^33 ctrlgrad 7 before d1 rather than go
$$ ;             option -DFLAG_BLK: (eda: ZGOPTNS)
$$                                           ;preprocessor-flags-end
$$
$$
$$ # 107 "C:/Bruker/TopSpin3.6.2/exp/stan/nmr/lists/pp/noesygppr1d"
$$ ;$Id: noesygppr1d,v 1.10 2012/01/31 17:49:27 ber Exp $
##$RELAX=
##$BRUKER FILE EXP=shimvalues
$$ # Sat Jan 23 07:12:07 2021
$$ #$$PROBEIDENTIFIER=Z168380_0018
$$ #$$PROBENAME=CP2.1 TCI 600S3 H-C/N-D-05 Z XT
$$ #$$SHIMID=292722
$$ #
$$ # Active Shim Gradients
$$ #
$$ Z           		-8476
$$ Z2          		245
$$ Z3          		-726
$$ Z4          		-6041
$$ Z5          		-80
$$ Z6          		4887
$$ Z7          		-870
$$ Z8          		895
$$ X           		3669
$$ XZ          		938
$$ XZ2         		1591
$$ XZ3         		-2934
$$ XZ4         		-432
$$ XZ5         		-6655
$$ Y           		837
$$ YZ          		-622
$$ YZ2         		13243
$$ YZ3         		-2265
$$ YZ4         		-658
$$ YZ5         		-5539
$$ XY          		1908
$$ XYZ         		-8878
$$ XYZ2        		2048
$$ XYZ3        		1592
$$ XYZ4        		-1699
$$ XYZ5        		0
$$ (X2-Y2)     		-2194
$$ (X2-Y2)Z    		-5424
$$ (X2-Y2)Z2   		814
$$ (X2-Y2)Z3   		-270
$$ (X2-Y2)Z4   		1622
$$ (X2-Y2)Z5   		0
$$ X3          		-15567
$$ X3Z         		-3377
$$ Y3          		-4051
$$ Y3Z         		784
$$ #
$$ # Lock Parameter
$$ #
$$ FIELD		700.181
$$ LOCKPHASE		88.878
$$ LOCKPOWER		-18.000
$$ LOCKGAIN		107.668
$$ LOCKDC		-75.000
$$ LOCKSHIFT		4.700
$$ LOOPGAIN		-4.250
$$ LOOPTIME		0.330
$$ LOOPFILTER		86.000
$$ #
$$ IEEE64_VERSION_CODE 1
$$ #
$$ # Shim currents
$$ #
$$ SHIM_SETTING [1 ]  -4377.91548986
$$ SHIM_SETTING [2 ]  -2112.41778473
$$ SHIM_SETTING [3 ]  -781.32946051
$$ SHIM_SETTING [4 ]  479.78842234
$$ SHIM_SETTING [5 ]  -1821.45143588
$$ SHIM_SETTING [6 ]  -607.83591619
$$ SHIM_SETTING [7 ]  -1293.39905576
$$ SHIM_SETTING [8 ]  867.71907582
$$ SHIM_SETTING [9 ]  -575.44415031
$$ SHIM_SETTING [10]  -374.47096054
$$ SHIM_SETTING [11]  0.00000000
$$ SHIM_SETTING [12]  -4834.52600000
$$ SHIM_SETTING [13]  -3267.41300000
$$ SHIM_SETTING [14]  -5912.41200000
$$ SHIM_SETTING [15]  616.78868807
$$ SHIM_SETTING [16]  8666.75868807
$$ SHIM_SETTING [17]  4970.65867043
$$ SHIM_SETTING [18]  1176.36232957
$$ SHIM_SETTING [19]  -7642.05005836
$$ SHIM_SETTING [20]  9483.68986777
$$ SHIM_SETTING [21]  -5476.65700000
$$ SHIM_SETTING [22]  5771.15100000
$$ SHIM_SETTING [23]  -8065.51900000
$$ SHIM_SETTING [24]  -759.99100000
$$ SHIM_SETTING [25]  -1384.88100000
$$ SHIM_SETTING [26]  1580.08900000
$$ SHIM_SETTING [27]  -9187.97300000
$$ SHIM_SETTING [28]  9006.77222018
$$ SHIM_SETTING [29]  -1401.69000000
$$ SHIM_SETTING [30]  -617.50500000
$$ SHIM_SETTING [31]  -6326.76597743
$$ SHIM_SETTING [32]  18191.38622018
$$ SHIM_SETTING [33]  -5208.60300000
$$ SHIM_SETTING [34]  10195.26700000
$$ SHIM_SETTING [35]  -5157.98500000
$$ SHIM_SETTING [36]  9371.43800000
$$ SHIM_SETTING [37]  3114.57704014
$$ SHIM_SETTING [38]  -11384.62251661
$$ SHIM_SETTING [39]  -7787.00802257
$$ SHIM_SETTING [40]  0.00000000
##$RELAX=
##$BRUKER FILE EXP=uxnmr.par
$$ ##TITLE= Parameter file, TopSpin 3.6.2
$$ ##JCAMPDX= 5.0
$$ ##DATATYPE= Parameter Values
$$ ##NPOINTS= 19	$$ modification sequence number
$$ ##ORIGIN= Bruker BioSpin GmbH
$$ ##OWNER= nmrsu
$$ $$ 2020-12-16 13:23:19.510 +0100  nmrsu@CZC0399KS1
$$ $$ C:/Bruker/TopSpin3.6.2/conf/instr/spect/uxnmr.par
$$ $$ process C:\Bruker\TopSpin3.6.2\prog\mod\cfserverav3.exe
$$ ##$ACB= 0
$$ ##$ACBTAT= (0..23)
$$ 0 88 72 88 50 50 0 0 0 0 0 0 0 0 0 0 0 0 0 0 0 0 0 0
$$ ##$ACBTBA= (0..23)
$$ 0 0 0 0 0 0 0 0 0 0 0 0 0 0 0 0 0 0 0 0 0 0 0 0
$$ ##$ACBTBLK= (0..23)
$$ 0 36 34 33 39 1 0 0 0 0 0 0 0 0 0 0 0 0 0 0 0 0 0 0
$$ ##$ACBTCTL= (0..23)
$$ 0 6 6 6 6 6 0 0 0 0 0 0 0 0 0 0 0 0 0 0 0 0 0 0
$$ ##$ACBTDI= (0..23)
$$ 0 -1779670018 -1779670020 -1779670020 -1779670020 -1779670252 0 0 0 0 0
$$ 0 0 0 0 0 0 0 0 0 0 0 0 0
$$ ##$ACBTDM= (0..23)
$$ 0 10 25 10 10 10 0 0 0 0 0 0 0 0 0 0 0 0 0 0 0 0 0 0
$$ ##$ACBTFHI= (0..23)
$$ 0 365 600 365 92 93 0 0 0 0 0 0 0 0 0 0 0 0 0 0 0 0 0 0
$$ ##$ACBTFL= (0..23)
$$ 0 248 248 248 88 8 0 0 0 0 0 0 0 0 0 0 0 0 0 0 0 0 0 0
$$ ##$ACBTFLO= (0..23)
$$ 0 6 180 6 30 91 0 0 0 0 0 0 0 0 0 0 0 0 0 0 0 0 0 0
$$ ##$ACBTINP= (0..23)
$$ 0 4 2 1 7 0 0 0 0 0 0 0 0 0 0 0 0 0 0 0 0 0 0 0
$$ ##$ACBTOUT= (0..23)
$$ 0 1 1 2 3 1 0 0 0 0 0 0 0 0 0 0 0 0 0 0 0 0 0 0
$$ ##$ACBTPO= (0..23)
$$ 0 300000 100000 300000 150000 5000 0 0 0 0 0 0 0 0 0 0 0 0 0 0 0 0 0 0
$$ ##$ACBTPW= (0..23)
$$ 0 100 100 100 5 1000 0 0 0 0 0 0 0 0 0 0 0 0 0 0 0 0 0 0
$$ ##$ACBTSB= (0..23)
$$ 0 0 103 99 16 0 0 0 0 0 0 0 0 0 0 0 0 0 0 0 0 0 0 0
$$ ##$ACBTSDT= (0..23)
$$ 0 2 2 2 2 2 0 0 0 0 0 0 0 0 0 0 0 0 0 0 0 0 0 0
$$ ##$ACBTY= <no>
$$ ##$AMPDFLT= no
$$ ##$AQSBDCH= (0..95)
$$ 0 0 0 0 0 0 0 0 0 0 255 255 255 255 255 255 255 255 255 255 255 255 255
$$ 255 255 255 255 255 255 255 255 255 255 255 255 255 255 255 255 255 255
$$ 255 255 255 255 255 255 255 255 255 255 255 255 255 255 255 255 255 255
$$ 255 255 255 255 255 255 255 255 255 255 255 255 255 255 255 255 255 255
$$ 255 255 255 255 255 255 255 255 255 255 255 255 255 255 255 255 255 255
$$ 255
$$ ##$AQSBDHW= (0..95)
$$ 5 1 0 0 0 0 0 0 0 0 255 255 255 255 255 255 255 255 255 255 255 255 255
$$ 255 255 255 255 255 255 255 255 255 255 255 255 255 255 255 255 255 255
$$ 255 255 255 255 255 255 255 255 255 255 255 255 255 255 255 255 255 255
$$ 255 255 255 255 255 255 255 255 255 255 255 255 255 255 255 255 255 255
$$ 255 255 255 255 255 255 255 255 255 255 255 255 255 255 255 255 255 255
$$ 255
$$ ##$AQSBDID= (0..95)
$$ 82 88 83 83 83 83 86 86 66 66 255 255 255 255 255 255 255 255 255 255 255
$$ 255 255 255 255 255 255 255 255 255 255 255 255 255 255 255 255 255 255
$$ 255 255 255 255 255 255 255 255 255 255 255 255 255 255 255 255 255 255
$$ 255 255 255 255 255 255 255 255 255 255 255 255 255 255 255 255 255 255
$$ 255 255 255 255 255 255 255 255 255 255 255 255 255 255 255 255 255 255
$$ 255 255 255
$$ ##$AQSBDNO= (0..95)
$$ 1 1 1 2 3 4 1 2 1 1 255 255 255 255 255 255 255 255 255 255 255 255 255
$$ 255 255 255 255 255 255 255 255 255 255 255 255 255 255 255 255 255 255
$$ 255 255 255 255 255 255 255 255 255 255 255 255 255 255 255 255 255 255
$$ 255 255 255 255 255 255 255 255 255 255 255 255 255 255 255 255 255 255
$$ 255 255 255 255 255 255 255 255 255 255 255 255 255 255 255 255 255 255
$$ 255
$$ ##$AQSBDSL= (0..95)
$$ 2 3 4 4 5 5 13 14 255 1 255 255 255 255 255 255 255 255 255 255 255 255
$$ 255 255 255 255 255 255 255 255 255 255 255 255 255 255 255 255 255 255
$$ 255 255 255 255 255 255 255 255 255 255 255 255 255 255 255 255 255 255
$$ 255 255 255 255 255 255 255 255 255 255 255 255 255 255 255 255 255 255
$$ 255 255 255 255 255 255 255 255 255 255 255 255 255 255 255 255 255 255
$$ 255 255
$$ ##$AQSBDTY= (0..95)
$$ 67 214 50 50 50 50 147 145 216 7 255 255 255 255 255 255 255 255 255 255
$$ 255 255 255 255 255 255 255 255 255 255 255 255 255 255 255 255 255 255
$$ 255 255 255 255 255 255 255 255 255 255 255 255 255 255 255 255 255 255
$$ 255 255 255 255 255 255 255 255 255 255 255 255 255 255 255 255 255 255
$$ 255 255 255 255 255 255 255 255 255 255 255 255 255 255 255 255 255 255
$$ 255 255 255 255
$$ ##$AQSBUAD= (0..95)
$$ 16 52 36 37 38 39 160 161 32 32 255 255 255 255 255 255 255 255 255 255
$$ 255 255 255 255 255 255 255 255 255 255 255 255 255 255 255 255 255 255
$$ 255 255 255 255 255 255 255 255 255 255 255 255 255 255 255 255 255 255
$$ 255 255 255 255 255 255 255 255 255 255 255 255 255 255 255 255 255 255
$$ 255 255 255 255 255 255 255 255 255 255 255 255 255 255 255 255 255 255
$$ 255 255 255 255
$$ ##$AQSECL= (0..95)
$$ 0 2 2 2 2 2 0 1 1 255 255 255 255 255 255 255 255 255 255 255 255 255 255
$$ 255 255 255 255 255 255 255 255 255 255 255 255 255 255 255 255 255 255
$$ 255 255 255 255 255 255 255 255 255 255 255 255 255 255 255 255 255 255
$$ 255 255 255 255 255 255 255 255 255 255 255 255 255 255 255 255 255 255
$$ 255 255 255 255 255 255 255 255 255 255 255 255 255 255 255 255 255 255
$$ 255
$$ ##$AQSECLS= (0..95)
$$ 1 0 0 0 0 0 0 1 1 255 255 255 255 255 255 255 255 255 255 255 255 255 255
$$ 255 255 255 255 255 255 255 255 255 255 255 255 255 255 255 255 255 255
$$ 255 255 255 255 255 255 255 255 255 255 255 255 255 255 255 255 255 255
$$ 255 255 255 255 255 255 255 255 255 255 255 255 255 255 255 255 255 255
$$ 255 255 255 255 255 255 255 255 255 255 255 255 255 255 255 255 255 255
$$ 255
$$ ##$AQSETH1= <no>
$$ ##$AQSETH2= <no>
$$ ##$AQSSPLT= no
$$ ##$ATT19F= (0..1)
$$ 0 0
$$ ##$ATT1H= (0..1)
$$ 0 0
$$ ##$ATT3H= (0..1)
$$ 0 0
$$ ##$ATTX= (0..1)
$$ 0 0
$$ ##$ATTY= (0..1)
$$ 0 0
$$ ##$ATTZ= (0..1)
$$ 0 0
$$ ##$BACSAIR= yes
$$ ##$BACSCAP= 596
$$ ##$BACSDEL= 10
$$ ##$BACSFCM= no
$$ ##$BACSOPT= <>
$$ ##$BACSTY= <tty04>
$$ ##$BARPTY= <no>
$$ ##$BFREQ= 600.25
$$ ##$BGAETH= (0..9)
$$ <no> <no> <no> <no> <no> <no> <no> <no> <no> <no>
$$ ##$BIRDS= yes
$$ ##$BMPC= 0
$$ ##$BMPCTY= <no>
$$ ##$BPSUTY= <no>
$$ ##$BSMS= 2
$$ ##$BSMS19FLock= no
$$ ##$BSMSETH= <149.236.99.20>
$$ ##$BSMSTY= <no>
$$ ##$BgaChFac2= (0..7)
$$ 0 0 0 0 0 0 0 0
$$ ##$BgaChMap= (0..7)
$$ 0 0 0 0 0 0 0 0
$$ ##$BgaChMaxv= (0..7)
$$ 0 0 0 0 0 0 0 0
$$ ##$BgaChRouting= (0..63)
$$ 0 0 0 0 0 0 0 0 0 0 0 0 0 0 0 0 0 0 0 0 0 0 0 0 0 0 0 0 0 0 0 0 0 0 0 0
$$ 0 0 0 0 0 0 0 0 0 0 0 0 0 0 0 0 0 0 0 0 0 0 0 0 0 0 0 0
$$ ##$BgaChShimMap= (0..7)
$$ 0 0 0 0 0 0 0 0
$$ ##$BgaChShimMaxv= (0..7)
$$ 0 0 0 0 0 0 0 0
$$ ##$BlaEth= (0..9)
$$ <149.236.99.254> <149.236.99.252> <149.236.99.20> <no> <no> <no> <no> <no>
$$ <> <>
$$ ##$BlaNam= (0..9)
$$ <BLAX300 E 6-365MHZ INR> <BLAXH2H300/100/150 E 200-600MHZ BSMS/2 LOCK TRANSCEIVER 600>
$$ <BSMS/2 LOCK TRANSCEIVER 600> <> <> <> <> <> <> <>
$$ ##$BlaPN= (0..9)
$$ <W1345092> <W1345096> <Z109890> <> <> <> <> <> <> <>
$$ ##$BlaSN= (0..9)
$$ <0563> <0912> <01433> <> <> <> <> <> <> <>
$$ ##$BsmsAuxEth= <no>
$$ ##$CFASMOD= (0..7)
$$ 1 1 1 1 1 1 1 1
$$ ##$CFASMUL= (0..7)
$$ 1 1 1 1 1 1 1 1
$$ ##$CNFTXDR= (0..7)
$$ 6 6 6 6 0 0 0 0
$$ ##$COMDIG2= 0
$$ ##$CPDBTY= <no>
$$ ##$CRCOTY= <tty05>
$$ ##$CSW1= (0..31)
$$ 4 4 0 2 2 2 7 0 0 0 0 0 0 0 0 0 0 0 0 0 0 0 0 0 0 0 0 0 0 0 0 0
$$ ##$CSW2= (0..31)
$$ 0 0 0 1 1 1 0 0 0 0 0 0 0 0 0 0 0 0 0 0 0 0 0 0 0 0 0 0 0 0 0 0
$$ ##$CSWNUM= (0..7)
$$ 3 4 1 0 0 0 0 0
$$ ##$ConsolePnSn= <>
$$ ##$CryoCoolUnitEth= <no>
$$ ##$CryoProAccPnSn= <>
$$ ##$Ctb1Eth= <no>
$$ ##$CubeEth= (0..7)
$$ <no> <no> <no> <no> <no> <no> <no> <no>
$$ ##$CustRegisterNo= <>
$$ ##$DATSTAT= no
$$ ##$DIGI140= (0..7)
$$ 0 0 0 0 0 0 0 0
$$ ##$DIGIB12= (0..7)
$$ 0 0 0 0 0 0 0 0
$$ ##$DIGIB16= (0..7)
$$ 0 0 0 0 0 0 0 0
$$ ##$DIGIFA= (0..7)
$$ 0 0 0 0 0 0 0 0
$$ ##$DIGIFOURIER= 0
$$ ##$DIGIHA= (0..7)
$$ 0 0 0 0 0 0 0 0
$$ ##$DIGIHAF= (0..7)
$$ 0 0 0 0 0 0 0 0
$$ ##$DIGIHRD= (0..7)
$$ 0 0 0 0 0 0 0 0
$$ ##$DIGIIA= (0..7)
$$ 0 0 0 0 0 0 0 0
$$ ##$DIGIO16= (0..7)
$$ 0 0 0 0 0 0 0 0
$$ ##$DIGISA= (0..7)
$$ 0 0 0 0 0 0 0 0
$$ ##$DIGISAF= (0..7)
$$ 0 0 0 0 0 0 0 0
$$ ##$DIGISL= (0..7)
$$ 0 0 0 0 0 0 0 0
$$ ##$DIGITYI= (0..7)
$$ 0 0 0 0 0 0 0 0
$$ ##$DIGITYP= (0..7)
$$ 0 0 0 0 0 0 0 0
$$ ##$DIGITZ= 0
$$ ##$DPPFAC= 1
$$ ##$DRMSETH= <no>
$$ ##$DRU= yes
$$ ##$DRUETH= (0..33)
$$ <no> <149.236.99.89> <no> <no> <no> <no> <no> <no> <no> <no> <no> <no>
$$ <no> <no> <no> <no> <no> <no> <no> <no> <no> <no> <no> <no> <no> <no> <no>
$$ <no> <no> <no> <no> <no> <no> <no>
$$ ##$Description= <Avance III HD 600>
$$ ##$DppType= 0
$$ ##$FCUMEM= (0..7)
$$ 16777208 16777208 16777208 16777208 0 0 0 0
$$ ##$FCUPAL= (0..7)
$$ 0 0 0 0 0 0 0 0
$$ ##$FGSVTY= <no>
$$ ##$FQMIX= 0
$$ ##$FUNCMOD= <>
$$ ##$FourPeriBdEth= <no>
$$ ##$FourShimBdEth= <no>
$$ ##$FourierPicsCon= no
$$ ##$GCUTYPE= 10
$$ ##$GCUTYPE2= 0
$$ ##$GPREDEL= 0
$$ ##$GPSCUTY= <no>
$$ ##$GRADRES= 5
$$ ##$GTUTY= <no>
$$ ##$GcConn= (0..1)
$$ 1 0
$$ ##$GradAmpGain= (0..7)
$$ 0 0 0 0 0 0 0 0
$$ ##$GradAmpMaxCurX= (0..7)
$$ 0 0 0 0 0 0 0 0
$$ ##$GradAmpMaxCurY= (0..7)
$$ 0 0 0 0 0 0 0 0
$$ ##$GradAmpMaxCurZ= (0..7)
$$ 9.99999904632568 0 0 0 0 0 0 0
$$ ##$GradAmpName= (0..7)
$$ <GAB in BSMS> <> <> <> <> <> <> <>
$$ ##$GradAmpPN= (0..7)
$$ <> <> <> <> <> <> <> <>
$$ ##$GradAmpSN= (0..7)
$$ <> <> <> <> <> <> <> <>
$$ ##$GradAmpType= (0..7)
$$ 2 0 0 0 0 0 0 0
$$ ##$GradPowClkCtrl= 0
$$ ##$GradPowClkTime= 0
$$ ##$GradPowImax= 0
$$ ##$GradPowType= 0
$$ ##$GradPowVmax= 0
$$ ##$HDIETH= (0..5)
$$ <no> <no> <no> <no> <no> <no>
$$ ##$HFAC= 3
$$ ##$HPCU= 0
$$ ##$HPCUTY= <no>
$$ ##$HPTXLP= (0..3)
$$ -1 -1 -1 -1
$$ ##$HPTXPI= (0..3)
$$ 0 0 0 0
$$ ##$HPTXPO= (0..3)
$$ 0 0 0 0
$$ ##$HPTXTY= (0..3)
$$ 0 0 0 0
$$ ##$HpprCoverType= 2
$$ ##$IF451= 0
$$ ##$IFREQ= 1
$$ ##$INJPTY= <no>
$$ ##$INTFPR= 0
$$ ##$IPSOETH= <149.236.99.253>
$$ ##$IPSOTYPE= 1
$$ ##$LDUETH= <no>
$$ ##$LOCKCONF= <DLMT>
$$ ##$LOCKTY= <no>
$$ ##$LOCSWID= 0
$$ ##$LOCSWIF= 0
$$ ##$LVDSSPLITETH= (0..5)
$$ <no> <no> <no> <no> <no> <no>
$$ ##$Location= <>
$$ ##$M2FAC= 0
$$ ##$MAS= 0
$$ ##$MASETIME= 10
$$ ##$MASITIME= 10
$$ ##$MASTY= <no>
$$ ##$MAS_CT= 5
$$ ##$MAS_SG= 0
$$ ##$MAS_TO= 0
$$ ##$MEMPRM= 0
$$ ##$MHFAC= 0
$$ ##$MXFAC= 0
$$ ##$MagnCoilPnSn= <BZH 321/600/70D>
$$ ##$MagnDewarPnSn= <D262/54-5656>
$$ ##$MasEth= <no>
$$ ##$NAMPD= (0..17)
$$ <> <HPLNA 1H19F> <2H> <HPLNA BB31P> <XBB19F 2HS> <13C/79Br> <15N> <> <>
$$ <> <> <> <> <> <> <> <> <>
$$ ##$NFCU= 4
$$ ##$NFRED= 0
$$ ##$NMRCH= 2
$$ ##$NMRMEM= 16384
$$ ##$NPSGU= 0
$$ ##$NRCU= 1
$$ ##$NROUT= 0
$$ ##$NSGU= 4
$$ ##$OrderNo= <436014>
$$ ##$PAMPF1= (0..15)
$$ 75 56 96 88 64 80 80 0 0 0 0 0 0 0 0 0
$$ ##$PAMPF2= (0..15)
$$ 0 0 0 0 0 0 0 0 0 0 0 0 0 0 0 0
$$ ##$PAMPF3= (0..15)
$$ 0 0 0 0 0 0 0 0 0 0 0 0 0 0 0 0
$$ ##$PAMPF4= (0..15)
$$ 0 0 0 0 0 0 0 0 0 0 0 0 0 0 0 0
$$ ##$PAMPF5= (0..15)
$$ 0 0 0 0 0 0 0 0 0 0 0 0 0 0 0 0
$$ ##$PAMPF6= (0..15)
$$ 0 0 0 0 0 0 0 0 0 0 0 0 0 0 0 0
$$ ##$PAMPF7= (0..15)
$$ 0 0 0 0 0 0 0 0 0 0 0 0 0 0 0 0
$$ ##$PAMPF8= (0..15)
$$ 0 0 0 0 0 0 0 0 0 0 0 0 0 0 0 0
$$ ##$PH4= 0
$$ ##$PHF4TY= <no>
$$ ##$POWCHK= yes
$$ ##$PRAMD1= (0..7)
$$ 6 0 0 1610612736 4 0 0 536870912
$$ ##$PRAMD10= (0..7)
$$ 0 0 0 0 0 0 0 0
$$ ##$PRAMD11= (0..7)
$$ 0 0 0 0 0 0 0 0
$$ ##$PRAMD12= (0..7)
$$ 0 0 0 0 0 0 0 0
$$ ##$PRAMD13= (0..7)
$$ 0 0 0 0 0 0 0 0
$$ ##$PRAMD14= (0..7)
$$ 0 0 0 0 0 0 0 0
$$ ##$PRAMD15= (0..7)
$$ 0 0 0 0 0 0 0 0
$$ ##$PRAMD16= (0..7)
$$ 0 0 0 0 0 0 0 0
$$ ##$PRAMD17= (0..7)
$$ 0 0 0 0 0 0 0 0
$$ ##$PRAMD18= (0..7)
$$ 0 0 0 0 0 0 0 0
$$ ##$PRAMD19= (0..7)
$$ 0 0 0 0 0 0 0 0
$$ ##$PRAMD2= (0..7)
$$ 0 1048576 0 536870912 0 1048576 0 536870912
$$ ##$PRAMD20= (0..7)
$$ 0 0 0 0 0 0 0 0
$$ ##$PRAMD21= (0..7)
$$ 0 0 0 0 0 0 0 0
$$ ##$PRAMD3= (0..7)
$$ 2147483584 2147483647 2147483647 1610743807 0 0 0 0
$$ ##$PRAMD4= (0..7)
$$ 2147483644 2131230719 2147483647 603979775 0 0 0 0
$$ ##$PRAMD5= (0..7)
$$ 50331648 0 0 536870912 0 0 0 0
$$ ##$PRAMD6= (0..7)
$$ 0 0 4 536870912 0 0 0 0
$$ ##$PRAMD7= (0..7)
$$ 0 0 0 0 0 0 0 0
$$ ##$PRAMD8= (0..7)
$$ 0 0 0 0 0 0 0 0
$$ ##$PRAMD9= (0..7)
$$ 0 0 0 0 0 0 0 0
$$ ##$PRAMLED= (0..1)
$$ 0 0
$$ ##$PRAMP= (0..9)
$$ <00000000> <tty10> <no> <no> <no> <no> <no> <no> <no> <00000000>
$$ ##$PRAMPTP= 1
$$ ##$PREEMPTYPE= 0
$$ ##$PREPTY= <no>
$$ ##$PREREC= (0..15)
$$ 0 1 1 1 1 1 1 0 0 0 0 0 0 0 0 0
$$ ##$PRESHLD= 0
$$ ##$PTS160= -1
$$ ##$PTSA2X= (0..7)
$$ 0 0 0 0 0 0 0 0
$$ ##$PTSF2X= (0..7)
$$ 0 0 0 0 0 0 0 0
$$ ##$PTSFMX= (0..19)
$$ 649.9 649.9 649.9 649.9 0 0 0 0 0 0 0 0 0 0 0 0 0 0 0 0
$$ ##$PULCHK= no
$$ ##$PerMagATempSens= no
$$ ##$PerMagEth= <no>
$$ ##$PerMagFluxSens= no
$$ ##$PerMagMTempSens= no
$$ ##$PramDutyCycPerc= (0..15)
$$ 4 2 4 2 2 2 0 0 0 0 0 0 0 0 0 0
$$ ##$PramPeakPowerW= (0..15)
$$ 4000 500 4000 500 500 500 0 0 0 0 0 0 0 0 0 0
$$ ##$PramPowerSwitch= (0..15)
$$ 0 0 0 0 0 0 0 0 0 0 0 0 0 0 0 0
$$ ##$PramPulWidthMs= (0..15)
$$ 10 0.1 0.05 0.1 0.1 0.1 0 0 0 0 0 0 0 0 0 0
$$ ##$PreampModBisDat= (0..15)
$$ 20201106 20201001 20201029 20191029 20201002 20201005 0 0 0 0 0 0 0 0 0
$$ 0
$$ ##$PreampModPN= (0..17)
$$ <Z103205> <Z003473> <Z111093> <Z003506> <Z003524> <Z003530> <> <> <> <>
$$ <> <> <> <> <> <> <> <>
$$ ##$PreampModSN= (0..17)
$$ <01362> <02011> <00357> <01915> <01383> <01246> <> <> <> <> <> <> <> <>
$$ <> <> <> <>
$$ ##$ProdigyEth= <no>
$$ ##$RCUCDS= (0..7)
$$ 0 0 0 0 0 0 0 0
$$ ##$RCUCFS= (0..7)
$$ 0 0 0 0 0 0 0 0
$$ ##$RCUCSS= (0..7)
$$ 0 0 0 0 0 0 0 0
$$ ##$RCUI2C1= (0..7)
$$ 0 0 0 0 0 0 0 0
$$ ##$RCUI2C2= (0..7)
$$ 0 0 0 0 0 0 0 0
$$ ##$RCUI2C3= (0..7)
$$ 0 0 0 0 0 0 0 0
$$ ##$RCUI2C4= (0..7)
$$ 0 0 0 0 0 0 0 0
$$ ##$RCUI2C5= (0..7)
$$ 0 0 0 0 0 0 0 0
$$ ##$RCUI2C6= (0..7)
$$ 0 0 0 0 0 0 0 0
$$ ##$RCUI2C7= (0..7)
$$ 0 0 0 0 0 0 0 0
$$ ##$RCUI2C8= (0..7)
$$ 0 0 0 0 0 0 0 0
$$ ##$RDCU= 0
$$ ##$RFSINPUT= (0..1)
$$ 0 0
$$ ##$RFSVTY= <no>
$$ ##$RGTYPE= (0..31)
$$ 9 0 0 0 0 0 0 0 0 0 0 0 0 0 0 0 0 0 0 0 0 0 0 0 0 0 0 0 0 0 0 0
$$ ##$RG_max= (0..31)
$$ 203 -1 -1 -1 -1 -1 -1 -1 -1 -1 -1 -1 -1 -1 -1 -1 -1 -1 -1 -1 -1 -1 -1 -1
$$ -1 -1 -1 -1 -1 -1 -1 -1
$$ ##$RG_min= (0..31)
$$ 0.25 -1 -1 -1 -1 -1 -1 -1 -1 -1 -1 -1 -1 -1 -1 -1 -1 -1 -1 -1 -1 -1 -1
$$ -1 -1 -1 -1 -1 -1 -1 -1 -1
$$ ##$RG_tab1= (0..255)
$$ 0.25 0.28 0.32 0.35 0.4 0.44 0.5 0.56 0.64 0.7 0.8 0.89 1 1.12 1.28 1.4
$$ 1.6 1.78 2 2.25 2.56 2.8 3.2 3.56 4 4.5 5 5.6 6.35 7.12 8 9 10 11.3 12.7
$$ 14.2 16 18 20.2 22.6 25.4 28.5 32 36 40.3 45.2 50.8 57 64 71.8 80.6 90.5
$$ 101 114 128 144 161 181 203 -1 -1 -1 -1 -1 -1 -1 -1 -1 -1 -1 -1 -1 -1 -1
$$ -1 -1 -1 -1 -1 -1 -1 -1 -1 -1 -1 -1 -1 -1 -1 -1 -1 -1 -1 -1 -1 -1 -1 -1
$$ -1 -1 -1 -1 -1 -1 -1 -1 -1 -1 -1 -1 -1 -1 -1 -1 -1 -1 -1 -1 -1 -1 -1 -1
$$ -1 -1 -1 -1 -1 -1 -1 -1 -1 -1 -1 -1 -1 -1 -1 -1 -1 -1 -1 -1 -1 -1 -1 -1
$$ -1 -1 -1 -1 -1 -1 -1 -1 -1 -1 -1 -1 -1 -1 -1 -1 -1 -1 -1 -1 -1 -1 -1 -1
$$ -1 -1 -1 -1 -1 -1 -1 -1 -1 -1 -1 -1 -1 -1 -1 -1 -1 -1 -1 -1 -1 -1 -1 -1
$$ -1 -1 -1 -1 -1 -1 -1 -1 -1 -1 -1 -1 -1 -1 -1 -1 -1 -1 -1 -1 -1 -1 -1 -1
$$ -1 -1 -1 -1 -1 -1 -1 -1 -1 -1 -1 -1 -1 -1 -1 -1 -1 -1 -1 -1 -1 -1 -1 -1
$$ -1 -1 -1 -1 -1 -1 -1 -1 -1 -1 -1 -1 -1 -1
$$ ##$RG_tab2= (0..255)
$$ -1 -1 -1 -1 -1 -1 -1 -1 -1 -1 -1 -1 -1 -1 -1 -1 -1 -1 -1 -1 -1 -1 -1 -1
$$ -1 -1 -1 -1 -1 -1 -1 -1 -1 -1 -1 -1 -1 -1 -1 -1 -1 -1 -1 -1 -1 -1 -1 -1
$$ -1 -1 -1 -1 -1 -1 -1 -1 -1 -1 -1 -1 -1 -1 -1 -1 -1 -1 -1 -1 -1 -1 -1 -1
$$ -1 -1 -1 -1 -1 -1 -1 -1 -1 -1 -1 -1 -1 -1 -1 -1 -1 -1 -1 -1 -1 -1 -1 -1
$$ -1 -1 -1 -1 -1 -1 -1 -1 -1 -1 -1 -1 -1 -1 -1 -1 -1 -1 -1 -1 -1 -1 -1 -1
$$ -1 -1 -1 -1 -1 -1 -1 -1 -1 -1 -1 -1 -1 -1 -1 -1 -1 -1 -1 -1 -1 -1 -1 -1
$$ -1 -1 -1 -1 -1 -1 -1 -1 -1 -1 -1 -1 -1 -1 -1 -1 -1 -1 -1 -1 -1 -1 -1 -1
$$ -1 -1 -1 -1 -1 -1 -1 -1 -1 -1 -1 -1 -1 -1 -1 -1 -1 -1 -1 -1 -1 -1 -1 -1
$$ -1 -1 -1 -1 -1 -1 -1 -1 -1 -1 -1 -1 -1 -1 -1 -1 -1 -1 -1 -1 -1 -1 -1 -1
$$ -1 -1 -1 -1 -1 -1 -1 -1 -1 -1 -1 -1 -1 -1 -1 -1 -1 -1 -1 -1 -1 -1 -1 -1
$$ -1 -1 -1 -1 -1 -1 -1 -1 -1 -1 -1 -1 -1 -1 -1 -1
$$ ##$RG_tab3= (0..255)
$$ -1 -1 -1 -1 -1 -1 -1 -1 -1 -1 -1 -1 -1 -1 -1 -1 -1 -1 -1 -1 -1 -1 -1 -1
$$ -1 -1 -1 -1 -1 -1 -1 -1 -1 -1 -1 -1 -1 -1 -1 -1 -1 -1 -1 -1 -1 -1 -1 -1
$$ -1 -1 -1 -1 -1 -1 -1 -1 -1 -1 -1 -1 -1 -1 -1 -1 -1 -1 -1 -1 -1 -1 -1 -1
$$ -1 -1 -1 -1 -1 -1 -1 -1 -1 -1 -1 -1 -1 -1 -1 -1 -1 -1 -1 -1 -1 -1 -1 -1
$$ -1 -1 -1 -1 -1 -1 -1 -1 -1 -1 -1 -1 -1 -1 -1 -1 -1 -1 -1 -1 -1 -1 -1 -1
$$ -1 -1 -1 -1 -1 -1 -1 -1 -1 -1 -1 -1 -1 -1 -1 -1 -1 -1 -1 -1 -1 -1 -1 -1
$$ -1 -1 -1 -1 -1 -1 -1 -1 -1 -1 -1 -1 -1 -1 -1 -1 -1 -1 -1 -1 -1 -1 -1 -1
$$ -1 -1 -1 -1 -1 -1 -1 -1 -1 -1 -1 -1 -1 -1 -1 -1 -1 -1 -1 -1 -1 -1 -1 -1
$$ -1 -1 -1 -1 -1 -1 -1 -1 -1 -1 -1 -1 -1 -1 -1 -1 -1 -1 -1 -1 -1 -1 -1 -1
$$ -1 -1 -1 -1 -1 -1 -1 -1 -1 -1 -1 -1 -1 -1 -1 -1 -1 -1 -1 -1 -1 -1 -1 -1
$$ -1 -1 -1 -1 -1 -1 -1 -1 -1 -1 -1 -1 -1 -1 -1 -1
$$ ##$RG_tab4= (0..255)
$$ -1 -1 -1 -1 -1 -1 -1 -1 -1 -1 -1 -1 -1 -1 -1 -1 -1 -1 -1 -1 -1 -1 -1 -1
$$ -1 -1 -1 -1 -1 -1 -1 -1 -1 -1 -1 -1 -1 -1 -1 -1 -1 -1 -1 -1 -1 -1 -1 -1
$$ -1 -1 -1 -1 -1 -1 -1 -1 -1 -1 -1 -1 -1 -1 -1 -1 -1 -1 -1 -1 -1 -1 -1 -1
$$ -1 -1 -1 -1 -1 -1 -1 -1 -1 -1 -1 -1 -1 -1 -1 -1 -1 -1 -1 -1 -1 -1 -1 -1
$$ -1 -1 -1 -1 -1 -1 -1 -1 -1 -1 -1 -1 -1 -1 -1 -1 -1 -1 -1 -1 -1 -1 -1 -1
$$ -1 -1 -1 -1 -1 -1 -1 -1 -1 -1 -1 -1 -1 -1 -1 -1 -1 -1 -1 -1 -1 -1 -1 -1
$$ -1 -1 -1 -1 -1 -1 -1 -1 -1 -1 -1 -1 -1 -1 -1 -1 -1 -1 -1 -1 -1 -1 -1 -1
$$ -1 -1 -1 -1 -1 -1 -1 -1 -1 -1 -1 -1 -1 -1 -1 -1 -1 -1 -1 -1 -1 -1 -1 -1
$$ -1 -1 -1 -1 -1 -1 -1 -1 -1 -1 -1 -1 -1 -1 -1 -1 -1 -1 -1 -1 -1 -1 -1 -1
$$ -1 -1 -1 -1 -1 -1 -1 -1 -1 -1 -1 -1 -1 -1 -1 -1 -1 -1 -1 -1 -1 -1 -1 -1
$$ -1 -1 -1 -1 -1 -1 -1 -1 -1 -1 -1 -1 -1 -1 -1 -1
$$ ##$RG_tab5= (0..255)
$$ -1 -1 -1 -1 -1 -1 -1 -1 -1 -1 -1 -1 -1 -1 -1 -1 -1 -1 -1 -1 -1 -1 -1 -1
$$ -1 -1 -1 -1 -1 -1 -1 -1 -1 -1 -1 -1 -1 -1 -1 -1 -1 -1 -1 -1 -1 -1 -1 -1
$$ -1 -1 -1 -1 -1 -1 -1 -1 -1 -1 -1 -1 -1 -1 -1 -1 -1 -1 -1 -1 -1 -1 -1 -1
$$ -1 -1 -1 -1 -1 -1 -1 -1 -1 -1 -1 -1 -1 -1 -1 -1 -1 -1 -1 -1 -1 -1 -1 -1
$$ -1 -1 -1 -1 -1 -1 -1 -1 -1 -1 -1 -1 -1 -1 -1 -1 -1 -1 -1 -1 -1 -1 -1 -1
$$ -1 -1 -1 -1 -1 -1 -1 -1 -1 -1 -1 -1 -1 -1 -1 -1 -1 -1 -1 -1 -1 -1 -1 -1
$$ -1 -1 -1 -1 -1 -1 -1 -1 -1 -1 -1 -1 -1 -1 -1 -1 -1 -1 -1 -1 -1 -1 -1 -1
$$ -1 -1 -1 -1 -1 -1 -1 -1 -1 -1 -1 -1 -1 -1 -1 -1 -1 -1 -1 -1 -1 -1 -1 -1
$$ -1 -1 -1 -1 -1 -1 -1 -1 -1 -1 -1 -1 -1 -1 -1 -1 -1 -1 -1 -1 -1 -1 -1 -1
$$ -1 -1 -1 -1 -1 -1 -1 -1 -1 -1 -1 -1 -1 -1 -1 -1 -1 -1 -1 -1 -1 -1 -1 -1
$$ -1 -1 -1 -1 -1 -1 -1 -1 -1 -1 -1 -1 -1 -1 -1 -1
$$ ##$RG_tab6= (0..255)
$$ -1 -1 -1 -1 -1 -1 -1 -1 -1 -1 -1 -1 -1 -1 -1 -1 -1 -1 -1 -1 -1 -1 -1 -1
$$ -1 -1 -1 -1 -1 -1 -1 -1 -1 -1 -1 -1 -1 -1 -1 -1 -1 -1 -1 -1 -1 -1 -1 -1
$$ -1 -1 -1 -1 -1 -1 -1 -1 -1 -1 -1 -1 -1 -1 -1 -1 -1 -1 -1 -1 -1 -1 -1 -1
$$ -1 -1 -1 -1 -1 -1 -1 -1 -1 -1 -1 -1 -1 -1 -1 -1 -1 -1 -1 -1 -1 -1 -1 -1
$$ -1 -1 -1 -1 -1 -1 -1 -1 -1 -1 -1 -1 -1 -1 -1 -1 -1 -1 -1 -1 -1 -1 -1 -1
$$ -1 -1 -1 -1 -1 -1 -1 -1 -1 -1 -1 -1 -1 -1 -1 -1 -1 -1 -1 -1 -1 -1 -1 -1
$$ -1 -1 -1 -1 -1 -1 -1 -1 -1 -1 -1 -1 -1 -1 -1 -1 -1 -1 -1 -1 -1 -1 -1 -1
$$ -1 -1 -1 -1 -1 -1 -1 -1 -1 -1 -1 -1 -1 -1 -1 -1 -1 -1 -1 -1 -1 -1 -1 -1
$$ -1 -1 -1 -1 -1 -1 -1 -1 -1 -1 -1 -1 -1 -1 -1 -1 -1 -1 -1 -1 -1 -1 -1 -1
$$ -1 -1 -1 -1 -1 -1 -1 -1 -1 -1 -1 -1 -1 -1 -1 -1 -1 -1 -1 -1 -1 -1 -1 -1
$$ -1 -1 -1 -1 -1 -1 -1 -1 -1 -1 -1 -1 -1 -1 -1 -1
$$ ##$RG_tab7= (0..255)
$$ -1 -1 -1 -1 -1 -1 -1 -1 -1 -1 -1 -1 -1 -1 -1 -1 -1 -1 -1 -1 -1 -1 -1 -1
$$ -1 -1 -1 -1 -1 -1 -1 -1 -1 -1 -1 -1 -1 -1 -1 -1 -1 -1 -1 -1 -1 -1 -1 -1
$$ -1 -1 -1 -1 -1 -1 -1 -1 -1 -1 -1 -1 -1 -1 -1 -1 -1 -1 -1 -1 -1 -1 -1 -1
$$ -1 -1 -1 -1 -1 -1 -1 -1 -1 -1 -1 -1 -1 -1 -1 -1 -1 -1 -1 -1 -1 -1 -1 -1
$$ -1 -1 -1 -1 -1 -1 -1 -1 -1 -1 -1 -1 -1 -1 -1 -1 -1 -1 -1 -1 -1 -1 -1 -1
$$ -1 -1 -1 -1 -1 -1 -1 -1 -1 -1 -1 -1 -1 -1 -1 -1 -1 -1 -1 -1 -1 -1 -1 -1
$$ -1 -1 -1 -1 -1 -1 -1 -1 -1 -1 -1 -1 -1 -1 -1 -1 -1 -1 -1 -1 -1 -1 -1 -1
$$ -1 -1 -1 -1 -1 -1 -1 -1 -1 -1 -1 -1 -1 -1 -1 -1 -1 -1 -1 -1 -1 -1 -1 -1
$$ -1 -1 -1 -1 -1 -1 -1 -1 -1 -1 -1 -1 -1 -1 -1 -1 -1 -1 -1 -1 -1 -1 -1 -1
$$ -1 -1 -1 -1 -1 -1 -1 -1 -1 -1 -1 -1 -1 -1 -1 -1 -1 -1 -1 -1 -1 -1 -1 -1
$$ -1 -1 -1 -1 -1 -1 -1 -1 -1 -1 -1 -1 -1 -1 -1 -1
$$ ##$RG_tab8= (0..255)
$$ -1 -1 -1 -1 -1 -1 -1 -1 -1 -1 -1 -1 -1 -1 -1 -1 -1 -1 -1 -1 -1 -1 -1 -1
$$ -1 -1 -1 -1 -1 -1 -1 -1 -1 -1 -1 -1 -1 -1 -1 -1 -1 -1 -1 -1 -1 -1 -1 -1
$$ -1 -1 -1 -1 -1 -1 -1 -1 -1 -1 -1 -1 -1 -1 -1 -1 -1 -1 -1 -1 -1 -1 -1 -1
$$ -1 -1 -1 -1 -1 -1 -1 -1 -1 -1 -1 -1 -1 -1 -1 -1 -1 -1 -1 -1 -1 -1 -1 -1
$$ -1 -1 -1 -1 -1 -1 -1 -1 -1 -1 -1 -1 -1 -1 -1 -1 -1 -1 -1 -1 -1 -1 -1 -1
$$ -1 -1 -1 -1 -1 -1 -1 -1 -1 -1 -1 -1 -1 -1 -1 -1 -1 -1 -1 -1 -1 -1 -1 -1
$$ -1 -1 -1 -1 -1 -1 -1 -1 -1 -1 -1 -1 -1 -1 -1 -1 -1 -1 -1 -1 -1 -1 -1 -1
$$ -1 -1 -1 -1 -1 -1 -1 -1 -1 -1 -1 -1 -1 -1 -1 -1 -1 -1 -1 -1 -1 -1 -1 -1
$$ -1 -1 -1 -1 -1 -1 -1 -1 -1 -1 -1 -1 -1 -1 -1 -1 -1 -1 -1 -1 -1 -1 -1 -1
$$ -1 -1 -1 -1 -1 -1 -1 -1 -1 -1 -1 -1 -1 -1 -1 -1 -1 -1 -1 -1 -1 -1 -1 -1
$$ -1 -1 -1 -1 -1 -1 -1 -1 -1 -1 -1 -1 -1 -1 -1 -1
$$ ##$RG_tabA= (0..255)
$$ 0.25 0.28 0.32 0.35 0.4 0.44 0.5 0.56 0.64 0.7 0.8 0.89 1 1.12 1.28 1.4
$$ 1.6 1.78 2 2.25 2.56 2.8 3.2 3.56 4 4.5 5 5.6 6.35 7.12 8 9 10 11.3 12.7
$$ 14.2 16 18 20.2 22.6 25.4 28.5 32 36 40.3 45.2 50.8 57 64 71.8 80.6 90.5
$$ 101 114 128 144 161 181 203 -1 -1 -1 -1 -1 -1 -1 -1 -1 -1 -1 -1 -1 -1 -1
$$ -1 -1 -1 -1 -1 -1 -1 -1 -1 -1 -1 -1 -1 -1 -1 -1 -1 -1 -1 -1 -1 -1 -1 -1
$$ -1 -1 -1 -1 -1 -1 -1 -1 -1 -1 -1 -1 -1 -1 -1 -1 -1 -1 -1 -1 -1 -1 -1 -1
$$ -1 -1 -1 -1 -1 -1 -1 -1 -1 -1 -1 -1 -1 -1 -1 -1 -1 -1 -1 -1 -1 -1 -1 -1
$$ -1 -1 -1 -1 -1 -1 -1 -1 -1 -1 -1 -1 -1 -1 -1 -1 -1 -1 -1 -1 -1 -1 -1 -1
$$ -1 -1 -1 -1 -1 -1 -1 -1 -1 -1 -1 -1 -1 -1 -1 -1 -1 -1 -1 -1 -1 -1 -1 -1
$$ -1 -1 -1 -1 -1 -1 -1 -1 -1 -1 -1 -1 -1 -1 -1 -1 -1 -1 -1 -1 -1 -1 -1 -1
$$ -1 -1 -1 -1 -1 -1 -1 -1 -1 -1 -1 -1 -1 -1 -1 -1 -1 -1 -1 -1 -1 -1 -1 -1
$$ -1 -1 -1 -1 -1 -1 -1 -1 -1 -1 -1 -1 -1 -1
$$ ##$ROBOTTY= <no>
$$ ##$ROUT14= (0..7)
$$ 0 0 0 0 0 0 0 0
$$ ##$ROUTER= -1
$$ ##$RX22TY= <no>
$$ ##$RXFMAX= (0..7)
$$ 647.5 -1 -1 -1 -1 -1 -1 -1
$$ ##$RXFMIN= (0..7)
$$ 5 -1 -1 -1 -1 -1 -1 -1
$$ ##$RXINTLV= (0..7)
$$ 1 0 0 0 0 0 0 0
$$ ##$RXMSTY= <no>
$$ ##$RockSwitchEth= <no>
$$ ##$SCMTY= <no>
$$ ##$SGUC1= (0..15)
$$ 33 34 17 36 0 0 0 0 0 0 0 0 0 0 0 0
$$ ##$SGUC2= (0..15)
$$ 18 256 35 0 0 0 0 0 0 0 0 0 0 0 0 0
$$ ##$SLCBCONF= <SHNV>
$$ ##$SPECTR= 10
$$ ##$SY2FLAG= 0
$$ ##$SYNCTRIG= 11
$$ ##$SamChgEth= (0..3)
$$ <149.236.99.55> <no> <no> <no>
$$ ##$SamChgProtocol= (0..3)
$$ <CORBA> <> <> <>
$$ ##$ServiceNo= <>
$$ ##$Sgu1PowerLevels= (0..7)
$$ 90 74 58 42 26 10 0 0
$$ ##$Sgu2PowerLevels= (0..7)
$$ 90 74 58 42 26 10 0 0
$$ ##$Sgu3PowerLevels= (0..7)
$$ 90 74 58 42 26 10 0 0
$$ ##$Sgu4PowerLevels= (0..7)
$$ 90 74 58 42 26 10 0 0
$$ ##$Sgu5PowerLevels= (0..7)
$$ 0 0 0 0 0 0 0 0
$$ ##$Sgu6PowerLevels= (0..7)
$$ 0 0 0 0 0 0 0 0
$$ ##$Sgu7PowerLevels= (0..7)
$$ 0 0 0 0 0 0 0 0
$$ ##$Sgu8PowerLevels= (0..7)
$$ 0 0 0 0 0 0 0 0
$$ ##$SguType= 3
$$ ##$ShimMaxVal= 32760
$$ ##$ShimPow1Ch2Sh= (0..38)
$$ 0 0 0 0 0 0 0 0 0 0 0 0 0 0 0 0 0 0 0 0 0 0 0 0 0 0 0 0 0 0 0 0 0 0 0 0
$$ 0 0 0
$$ ##$ShimPow1Imax= (0..38)
$$ 0 0 0 0 0 0 0 0 0 0 0 0 0 0 0 0 0 0 0 0 0 0 0 0 0 0 0 0 0 0 0 0 0 0 0 0
$$ 0 0 0
$$ ##$ShimPow1NChan= 0
$$ ##$ShimPow1TotIMax= 0
$$ ##$ShimPow1Vmax= (0..38)
$$ 0 0 0 0 0 0 0 0 0 0 0 0 0 0 0 0 0 0 0 0 0 0 0 0 0 0 0 0 0 0 0 0 0 0 0 0
$$ 0 0 0
$$ ##$ShimPow2Ch2Sh= (0..38)
$$ 0 0 0 0 0 0 0 0 0 0 0 0 0 0 0 0 0 0 0 0 0 0 0 0 0 0 0 0 0 0 0 0 0 0 0 0
$$ 0 0 0
$$ ##$ShimPow2Imax= (0..38)
$$ 0 0 0 0 0 0 0 0 0 0 0 0 0 0 0 0 0 0 0 0 0 0 0 0 0 0 0 0 0 0 0 0 0 0 0 0
$$ 0 0 0
$$ ##$ShimPow2NChan= 0
$$ ##$ShimPow2TotIMax= 0
$$ ##$ShimPow2Vmax= (0..38)
$$ 0 0 0 0 0 0 0 0 0 0 0 0 0 0 0 0 0 0 0 0 0 0 0 0 0 0 0 0 0 0 0 0 0 0 0 0
$$ 0 0 0
$$ ##$ShimPow3Ch2Sh= (0..38)
$$ 0 0 0 0 0 0 0 0 0 0 0 0 0 0 0 0 0 0 0 0 0 0 0 0 0 0 0 0 0 0 0 0 0 0 0 0
$$ 0 0 0
$$ ##$ShimPow3Imax= (0..38)
$$ 0 0 0 0 0 0 0 0 0 0 0 0 0 0 0 0 0 0 0 0 0 0 0 0 0 0 0 0 0 0 0 0 0 0 0 0
$$ 0 0 0
$$ ##$ShimPow3NChan= 0
$$ ##$ShimPow3TotIMax= 0
$$ ##$ShimPow3Vmax= (0..38)
$$ 0 0 0 0 0 0 0 0 0 0 0 0 0 0 0 0 0 0 0 0 0 0 0 0 0 0 0 0 0 0 0 0 0 0 0 0
$$ 0 0 0
$$ ##$ShimPow4Ch2Sh= (0..38)
$$ 0 0 0 0 0 0 0 0 0 0 0 0 0 0 0 0 0 0 0 0 0 0 0 0 0 0 0 0 0 0 0 0 0 0 0 0
$$ 0 0 0
$$ ##$ShimPow4Imax= (0..38)
$$ 0 0 0 0 0 0 0 0 0 0 0 0 0 0 0 0 0 0 0 0 0 0 0 0 0 0 0 0 0 0 0 0 0 0 0 0
$$ 0 0 0
$$ ##$ShimPow4NChan= 0
$$ ##$ShimPow4TotIMax= 0
$$ ##$ShimPow4Vmax= (0..38)
$$ 0 0 0 0 0 0 0 0 0 0 0 0 0 0 0 0 0 0 0 0 0 0 0 0 0 0 0 0 0 0 0 0 0 0 0 0
$$ 0 0 0
$$ ##$ShimPowMaxUA= (0..63)
$$ 130000 130000 130000 130000 130000 130000 130000 130000 130000 130000 130000
$$ 130000 130000 130000 130000 130000 130000 130000 130000 130000 130000 130000
$$ 130000 130000 130000 130000 130000 130000 130000 130000 130000 130000 130000
$$ 130000 130000 130000 130000 130000 130000 130000 0 0 0 0 0 0 0 0 0 0 0
$$ 0 0 0 0 0 0 0 0 0 0 0 0 0
$$ ##$ShimPowMaxUC= (0..63)
$$ 130000 130000 130000 130000 130000 130000 130000 130000 130000 130000 130000
$$ 130000 130000 130000 130000 130000 130000 130000 130000 130000 130000 130000
$$ 130000 130000 130000 130000 130000 130000 130000 130000 130000 130000 130000
$$ 130000 130000 130000 130000 130000 130000 130000 0 0 0 0 0 0 0 0 0 0 0
$$ 0 0 0 0 0 0 0 0 0 0 0 0 0
$$ ##$ShimPowMaxUG= (0..63)
$$ 1000000 1000000 1000000 1000000 1000000 1000000 1000000 1000000 1000000
$$ 1000000 1000000 1000000 1000000 1000000 1000000 1000000 1000000 1000000
$$ 1000000 1000000 1000000 1000000 1000000 1000000 1000000 1000000 1000000
$$ 1000000 1000000 1000000 1000000 1000000 1000000 1000000 1000000 1000000
$$ 1000000 1000000 1000000 0 0 0 0 0 0 0 0 0 0 0 0 0 0 0 0 0 0 0 0 0 0 0 0
$$ 0
$$ ##$ShimPowNum= 0
$$ ##$ShimPowRcbType= 3
$$ ##$ShimPowRes= (0..63)
$$ 1e-020 1e-020 1e-020 1e-020 1e-020 1e-020 1e-020 1e-020 1e-020 1e-020 1e-020
$$ 1e-020 1e-020 1e-020 1e-020 1e-020 1e-020 1e-020 1e-020 1e-020 1e-020 1e-020
$$ 1e-020 1e-020 1e-020 1e-020 1e-020 1e-020 1e-020 1e-020 1e-020 1e-020 1e-020
$$ 1e-020 1e-020 1e-020 1e-020 1e-020 1e-020 1e-020 0 0 0 0 0 0 0 0 0 0 0
$$ 0 0 0 0 0 0 0 0 0 0 0 0 0
$$ ##$ShimPowRng0= (0..63)
$$ 1 1 1 1 1 1 1 1 1 1 1 1 1 1 1 1 1 1 1 1 1 1 1 1 1 1 1 1 1 1 1 1 1 1 1 1
$$ 1 1 1 1 0 0 0 0 0 0 0 0 0 0 0 0 0 0 0 0 0 0 0 0 0 0 0 0
$$ ##$ShimPowRng1= (0..63)
$$ 1 1 1 1 1 1 1 1 1 1 1 1 1 1 1 1 1 1 1 1 1 1 1 1 1 1 1 1 1 1 1 1 1 1 1 1
$$ 1 1 1 1 0 0 0 0 0 0 0 0 0 0 0 0 0 0 0 0 0 0 0 0 0 0 0 0
$$ ##$ShimPowRng2= (0..63)
$$ 1 1 1 1 1 1 1 1 1 1 1 1 1 1 1 1 1 1 1 1 1 1 1 1 1 1 1 1 1 1 1 1 1 1 1 1
$$ 1 1 1 1 0 0 0 0 0 0 0 0 0 0 0 0 0 0 0 0 0 0 0 0 0 0 0 0
$$ ##$ShimPowRng3= (0..63)
$$ 1 1 1 1 1 1 1 1 1 1 1 1 1 1 1 1 1 1 1 1 1 1 1 1 1 1 1 1 1 1 1 1 1 1 1 1
$$ 1 1 1 1 0 0 0 0 0 0 0 0 0 0 0 0 0 0 0 0 0 0 0 0 0 0 0 0
$$ ##$ShimPowType1= 0
$$ ##$ShimPowType2= 0
$$ ##$ShimPowType3= 0
$$ ##$ShimPowType4= 0
$$ ##$ShimSysAngle= <>
$$ ##$ShimSysFunc= (0..63)
$$ 1 2 3 4 5 6 7 8 9 10 0 37 38 35 16 15 14 13 12 11 28 27 26 25 24 23 36
$$ 22 30 29 20 21 34 33 32 31 17 18 19 0 0 0 0 0 0 0 0 0 0 0 0 0 0 0 0 0 0
$$ 0 0 0 0 0 0 0
$$ ##$ShimSysMatId= <no>
$$ ##$ShimSysMatrix= 1
$$ ##$ShimSysOffset= <945>
$$ ##$ShimSysType= 4
$$ ##$ShimUnit= 0
$$ ##$TFXNUM= 0
$$ ##$TOSITY= <no>
$$ ##$TRIPLO2= 0
$$ ##$VTU= 2
$$ ##$VTUETH= <149.236.99.20>
$$ ##$VTUTY= <no>
$$ ##$WBREFAM= (0..15)
$$ 100.3 100 100 100 100 100 100 100 100 100 100 100 100 100 100 100
$$ ##$WBREFLM= (0..15)
$$ 2 0 1 0 0 0 0 0 0 0 0 0 0 0 0 0
$$ ##$WBREFPH= (0..15)
$$ 0.46 0 0 0 0 0 0 0 0 0 0 0 0 0 0 0
$$ ##$WBSGU= (0..15)
$$ 0 0 0 0 0 0 0 0 0 0 0 0 0 0 0 0
$$ ##$XFAC= 2
$$ ##END=
##$RELAX=
##$BRUKER FILE PROC=intrng
$$ P 0
$$ 6.147341   5.454840
$$ 5.454687   5.006617
$$ 5.006464   4.725216
$$ 4.725064   4.531047
$$ 4.530895   0.720841
$$ 0.116946   -0.187675
##$RELAX=
$$ Bruker specific parameters
$$ --------------------------
##$DATPATH= <C:\Users\12345\Desktop\metabodecon-rust\data\bruker\blood>
##$EXPNO= 10
##$NAME= <blood_07>
##$PROCNO= 10
##$ACQT0= -7.77947559652967
##$AMP= (0..31)
100 100 100 100 100 100 100 100 100 100 100 100 100 100 100 100 100 100
100 100 100 100 100 100 100 100 100 100 100 100 100 100
##$AMPCOIL= (0..32)
-1 0 0 0 0 0 0 0 0 0 0 0 0 0 0 0 0 0 0 0 0 0 0 0 0 0 0 0 0 0 0 0 0
##$AQSEQ= 0
##$AQ_mod= 3
##$AUNM= <au_prof1d_rga>
##$AUTOPOS= <1  C8 - 132 >
##$BF1= 600.25
##$BF2= 600.25
##$BF3= 600.25
##$BF4= 600.25
##$BF5= 600.25
##$BF6= 600.25
##$BF7= 600.25
##$BF8= 600.25
##$BWFAC= (0..63)
0 0 0 0 0 0 0 0 0 0 0 0 0 0 0 0 0 0 0 0 0 0 0 0 0 0 0 0 0 0 0 0 0 0 0 0
0 0 0 0 0 0 0 0 0 0 0 0 0 0 0 0 0 0 0 0 0 0 0 0 0 0 0 0
##$BYTORDA= 0
##$CHANFCU= (0..24)
0 0 0 0 0 0 0 0 0 0 0 0 0 0 0 0 0 0 0 0 0 0 0 0 0
##$CHANREC= (0..24)
0 0 0 0 0 0 0 0 0 0 0 0 0 0 0 0 0 0 0 0 0 0 0 0 0
##$CHEMSTR= <none>
##$CNST= (0..63)
1 1 145 1 1 1 1 1 1 1 1 1 1 1 1 1 1 1 1 1 1 1 1 1 1 1 1 1 1 0.75 1 1 1
1 1 1 1 1 1 1 1 1 1 1 1 1 1 1 1 1 1 1 1 1 1 1 1 1 1 1 1 1 1 1
##$CPDPRG= (0..8)
<> <> <> <> <> <> <> <> <>
##$D= (0..63)
0 4 0 0 0 0 0 0 0.01 0.06 0 0.03 2e-05 0 0 0 0.0002 0 0 0 0 0 0 0 0 0 0
0 0 0 0 0 0 0 0 0 0 0 0 0 0 0 0 0 0 0 0 0 0 0 0 0 0 0 0 0 0 0 0 0 0 0 0
0
##$DATE= 1611382327
##$DATE_START= 0
##$DE= 26.57553
##$DECIM= 1664
##$DIGMOD= 3
##$DIGTYP= 12
##$DR= 22
##$DS= 4
##$DSPFIRM= 4
##$DSPFVS= 21
##$DTYPA= 0
##$EXP= <PROF_NOESY128rga_urine_wg>
##$ExpStatus= 0
##$FCUCHAN= (0..9)
0 2 0 0 0 0 0 0 0 0
##$FILCOR= 0
##$FL1= 90
##$FL2= 90
##$FL3= 90
##$FL4= 90
##$FN_INDIRECT= (0..7)
0 2 2 2 2 2 2 2
##$FOV= 20
##$FQ1LIST= <freqlist>
##$FQ2LIST= <freqlist>
##$FQ3LIST= <freqlist>
##$FQ4LIST= <freqlist>
##$FQ5LIST= <freqlist>
##$FQ6LIST= <freqlist>
##$FQ7LIST= <freqlist>
##$FQ8LIST= <freqlist>
##$FS= (0..7)
83 83 83 83 83 83 83 83
##$FW= 4032000
##$FnILOOP= 0
##$FnMODE= 0
##$FnTYPE= 0
##$GPNAM= (0..31)
<> <SMSQ10.100> <SMSQ10.100> <> <> <> <> <> <> <> <> <> <> <> <> <> <>
<> <> <> <> <> <> <> <> <> <> <> <> <> <> <>
##$GPX= (0..31)
0 0 0 0 0 0 0 0 0 0 0 0 0 0 0 0 0 0 0 0 0 0 0 0 0 0 0 0 0 0 0 0
##$GPY= (0..31)
0 0 0 0 0 0 0 0 0 0 0 0 0 0 0 0 0 0 0 0 0 0 0 0 0 0 0 0 0 0 0 0
##$GPZ= (0..31)
0 50 -10 0 0 0 0 0 0 0 0 0 0 0 0 0 0 0 0 0 0 0 0 0 0 0 0 0 0 0 0 0
##$GRPDLY= 76
##$GrpdlyHandling= 0
##$HDDUTY= 20
##$HDRATE= 1
##$HOLDER= 132
##$HPMOD= (0..32)
0 0 0 0 0 0 0 0 0 0 0 0 0 0 0 0 0 0 0 0 0 0 0 0 0 0 0 0 0 0 0 0 0
##$IN= (0..63)
0 0 0 0 0 0 0 0 0 0 0 0 0 0 0 0 0 0 0 0 0 0 0 0 0 0 0 0 0 0 0 0 0 0 0 0
0 0 0 0 0 0 0 0 0 0 0 0 0 0 0 0 0 0 0 0 0 0 0 0 0 0 0 0
##$INF= (0..7)
0 0 0 0 0 0 0 0
##$INP= (0..63)
0 0 0 0 0 0 0 0 0 0 0 0 0 0 0 0 0 0 0 0 0 0 0 0 0 0 0 0 0 0 0 0 0 0 0 0
0 0 0 0 0 0 0 0 0 0 0 0 0 0 0 0 0 0 0 0 0 0 0 0 0 0 0 0
##$INSTRUM= <spect>
##$INTEGFAC= (0..63)
0 0 0 0 0 0 0 0 0 0 0 0 0 0 0 0 0 0 0 0 0 0 0 0 0 0 0 0 0 0 0 0 0 0 0 0
0 0 0 0 0 0 0 0 0 0 0 0 0 0 0 0 0 0 0 0 0 0 0 0 0 0 0 0
##$L= (0..31)
1 1 1 1 1 1 0 1 1 1 1 1 1 1 1 1 1 1 1 1 1 1 1 1 1 1 1 1 1 1 1 1
##$LFILTER= 86
##$LGAIN= -4.25
##$LINPSTP= 0
##$LOCKED= yes
##$LOCKFLD= 700
##$LOCKGN= 107.667991638184
##$LOCKPOW= -18
##$LOCKPPM= 4.69999980926514
##$LOCNUC= <2H>
##$LOCPHAS= 88.8779
##$LOCSHFT= yes
##$LOCSW= 0
##$LTIME= 0.330000013113022
##$MASR= 4200
##$MULEXPNO= (0..15)
0 0 0 0 0 0 0 0 0 0 0 0 0 0 0 0
##$NBL= 1
##$NC= -6
##$NLOGCH= 4
##$NOVFLW= 0
##$NS= 128
##$NUC1= <1H>
##$NUC2= <off>
##$NUC3= <off>
##$NUC4= <off>
##$NUC5= <off>
##$NUC6= <off>
##$NUC7= <off>
##$NUC8= <off>
##$NUCLEUS= <off>
##$NUSLIST= <automatic>
##$NusAMOUNT= 25
##$NusFPNZ= no
##$NusJSP= 0
##$NusSEED= 54321
##$NusSPTYPE= 0
##$NusT2= 1
##$NusTD= 0
##$O1= 2821.08911765
##$O2= 2821.93
##$O3= 2821.93
##$O4= 2821.93
##$O5= 2821.93
##$O6= 2821.93
##$O7= 2821.93
##$O8= 2821.93
##$OVERFLW= 0
##$P= (0..63)
12.22 12.22 24.44 0 0 16.5 25 50 20000 0 0 80000 80000 1000 0 0 1000 2500
1000000 600 0 0 0 0 0 180 1000000 12.22 0 1000 0 0 20000 0 0 0 0 0 0 0
2000 0 0 0 200 0 80000 46600 10000 0 80000 0 0 0 0 0 0 0 0 0 0 0 0 0
##$PACOIL= (0..32)
1 4 0 0 2 3 0 0 0 0 0 0 0 0 0 0 0 0 0 0 0 0 0 0 0 0 0 0 0 0 0 0 0
##$PARMODE= 0
##$PCPD= (0..9)
100 88 100 100 100 100 100 100 100 100
##$PEXSEL= (0..9)
1 1 1 1 1 1 1 1 1 1
##$PHCOR= (0..31)
0 0 0 0 0 0 0 0 0 0 0 0 0 0 0 0 0 0 0 0 0 0 0 0 0 0 0 0 0 0 0 0
##$PHLIST= <>
##$PH_ref= 0
##$PL= (0..63)
120 120 120 120 120 120 120 120 120 120 120 120 120 120 120 120 120 120
120 120 120 120 120 120 120 120 120 120 120 120 120 120 120 120 120 120
120 120 120 120 120 120 120 120 120 120 120 120 120 120 120 120 120 120
120 120 120 120 120 120 120 120 120 120
##$PLSTEP= 0.1
##$PLSTRT= -6
##$PLW= (0..63)
0 5.3556 0 0 0 0 0 0 0 8.003e-06 1.2805 0.098802 0 0 0 0 0 0 5.3556 0.10334
0 0 0 0 0 0 0 0.098802 0 1.2805 0 0 1.2805e-06 0 0 0 0 0 0 0 0 0 0 0 0
0 0 0 0 0 0 0 0 0 0 0 0 0 0 0 0 0 0 0
##$PLWMAX= (0..7)
80.4 0 0 0 0 0 0 0
##$PR= 1
##$PRECHAN= (0..32)
-1 4 -1 0 -1 1 5 -1 -1 -1 -1 -1 -1 -1 -1 -1 -1 -1 -1 -1 -1 -1 -1 -1 -1
-1 -1 -1 -1 -1 -1 -1 -1
##$PROBHD= <Z168380_0018 (CP2.1 TCI 600S3 H-C/N-D-05 Z XT)>
##$PROBINPUTS= (0..15)
<1H> <13C> <15N> <2H> <> <> <> <> <> <> <> <> <> <> <> <>
##$PULPROG= <noesygppr1d>
##$PW= 0
##$PYNM= <acqu.py>
##$ProbeDescription= <>
##$ProjAngle= 0
##$QNP= 0
##$RECCHAN= (0..9)
0 2 0 0 0 0 0 0 0 0
##$RECPH= 0
##$RECPRE= (0..24)
-1 0 -1 -1 -1 -1 -1 -1 -1 -1 -1 -1 -1 -1 -1 -1 -1 -1 -1 -1 -1 -1 -1 -1
-1
##$RECPRFX= (0..32)
1 0 0 0 0 0 0 0 0 0 0 0 0 0 0 0 -1 -1 -1 -1 -1 -1 -1 -1 -1 -1 -1 -1 -1
-1 -1 -1 -1
##$RG= 129.07
##$RO= 0
##$RSEL= (0..24)
0 0 2 0 0 0 0 0 0 0 0 0 0 0 0 0 0 0 0 0 0 0 0 0 0
##$SAMPLEID= <>
##$SFO1= 600.252821089118
##$SFO2= 600.25282193
##$SFO3= 600.25282193
##$SFO4= 600.25282193
##$SFO5= 600.25282193
##$SFO6= 600.25282193
##$SFO7= 600.25282193
##$SFO8= 600.25282193
##$SOLVENT= <Plasma>
##$SOLVOLD= <off>
##$SP= (0..63)
120 120 120 120 120 120 120 120 120 120 120 120 120 120 120 120 120 120
120 120 120 120 120 120 120 120 120 120 120 120 120 120 120 120 120 120
120 120 120 120 120 120 120 120 120 120 120 120 120 120 120 120 120 120
120 120 120 120 120 120 120 120 120 120
##$SPECTR= 0
##$SPINCNT= 0
##$SPNAM= (0..63)
<> <Gaus1_270.1000> <Gaus1_180r.1000> <> <> <Sinc1.1000> <Squa100.1000>
<> <Squa100.1000> <> <Sinc1.1000> <Sinc1.1000> <> <> <> <> <> <> <> <Sinc1.1000>
<Sinc1.1000> <Sinc1.1000> <Sinc1.1000> <> <> <> <> <> <> <Crp60,20,20.10>
<Bip720,50,20.1> <> <> <> <Rsnob.1000> <Gaus1_180r.1000> <Gaus1_180r.1000>
<> <> <> <Gaus1_180r.1000> <Squa100.1000> <> <> <> <> <> <> <> <> <> <>
<> <> <> <> <> <> <> <> <> <> <> <>
##$SPOAL= (0..63)
0.5 1 0.5 0.5 0.5 0.5 0.5 0.5 0.5 0.5 0.5 0.5 0.5 0.5 0.5 0.5 0.5 0.5 0.5
1 1 1 1 0.5 0.5 0.5 0.5 0.5 0.5 0.5 0.5 0.5 0.5 0.5 0.5 0.5 0.5 0.5 0.5
0.5 0.5 0.5 0.5 0.5 0.5 0.5 0.5 0.5 0.5 0.5 0.5 0.5 0.5 0.5 0.5 0.5 0.5
0.5 0.5 0.5 0.5 0.5 0.5 0.5
##$SPOFFS= (0..63)
0 0 0 0 0 0 0 0 0 0 0 0 0 0 0 0 0 0 0 0 0 0 0 0 0 0 0 0 0 0 0 0 0 0 0 0
0 0 0 0 0 0 0 0 0 0 0 0 0 0 0 0 0 0 0 0 0 0 0 0 0 0 0 0
##$SPPEX= (0..63)
0 0 0 0 0 0 0 0 0 0 0 0 0 0 0 0 0 0 0 0 0 0 0 0 0 0 0 0 0 0 0 0 0 0 0 0
0 0 0 0 0 0 0 0 0 0 0 0 0 0 0 0 0 0 0 0 0 0 0 0 0 0 0 0
##$SPW= (0..63)
0 6.6437e-06 2.9528e-06 0 0 0.0023076 8.003e-06 0 8.003e-10 0 0.0023076
0.0023076 0 0 0 0 0 0 0 4.713355e-06 7.326757e-06 3.421076e-06 1.844958e-05
0 0 0 0 0 0 0.030569 1.2805 0 0 0 3.2281e-05 2.9528e-06 0.00018898 0 0
0 2.9528e-06 8.003e-10 0 0 0 0 0 0 0 0 0 0 0 0 0 0 0 0 0 0 0 0 0 0
##$SUBNAM= (0..9)
<> <> <> <> <> <> <> <> <> <>
##$SW= 20.0236139622347
##$SWIBOX= (0..32)
0 0 3 0 0 0 0 0 0 0 0 0 0 0 0 0 0 0 0 0 0 0 0 0 0 0 0 0 0 0 0 0 0
##$SW_h= 12019.2307692308
##$SWfinal= 0
##$SigLockShift= 0
##$TD= 65536
##$TD0= 1
##$TD_INDIRECT= (0..7)
0 2 2 2 2 2 2 2
##$TDav= 1
##$TE= 298.0016
##$TE1= 299.9396
##$TE2= 0
##$TE3= 0
##$TE4= 0
##$TEG= 300
##$TE_MAGNET= 0
##$TE_PIDX= 1
##$TE_RAW= 300
##$TE_STAB= (0..9)
2 2 0 0 0 0 0 0 0 0
##$TOTROT= (0..63)
0 0 0 0 0 0 0 0 0 0 0 0 0 0 0 0 0 0 0 0 0 0 0 0 0 0 0 0 0 0 0 0 0 0 0 0
0 0 0 0 0 0 0 0 0 0 0 0 0 0 0 0 0 0 0 0 0 0 0 0 0 0 0 0
##$TUBE_TYPE= <>
##$USERA1= <>
##$USERA10= <>
##$USERA2= <>
##$USERA3= <>
##$USERA4= <>
##$USERA5= <>
##$USERA6= <>
##$USERA7= <>
##$USERA8= <>
##$USERA9= <>
##$UUID= <>
##$VALIDCODE= -1
##$VALIST= <>
##$VCLIST= <>
##$VDLIST= <>
##$VPLIST= <>
##$VTLIST= <>
##$VtChillPowType= 0
##$VtChillPowVal= 0
##$VtChillType= 0
##$VtGasFlow= 0
##$WAVEMAKER= (0..7)
<> <> <> <> <> <> <> <>
##$WBST= 1024
##$WBSW= (0..7)
8 10 10 10 10 10 10 10
##$XL= 0
##$YL= 0
##$YMAX_a= 20127326
##$YMIN_a= -14440504
##$ZGOPTNS= <-DFLAG_BLK>
##$scaledByNS= no
##$scaledByRG= no
##$shimCoilTempK= 300
##$ABSF1= 14.80597
##$ABSF2= -5.21774
##$ABSG= 5
##$ABSL= 5
##$ALPHA= 0
##$AQORDER= 0
##$ASSFAC= 0
##$ASSFACI= 0
##$ASSFACX= 0
##$ASSWID= 0
##$AUNMP= <proc_cpmg>
##$AXLEFT= 0
##$AXNAME= <>
##$AXNUC= <1H>
##$AXRIGHT= 0
##$AXTYPE= 0
##$AXUNIT= <>
##$AZFE= 0.1
##$AZFW= 0.1
##$BCFW= 0
##$BC_mod= 0
##$BYTORDP= 0
##$COROFFS= 0
##$CY= 100
##$DATMOD= 1
##$DC= 0
##$DFILT= <>
##$DTYPP= 0
##$ERETIC= no
##$F1P= 0.298734395926173
##$F2P= -0.597468791852346
##$FCOR= 0.5
##$FTSIZE= 131072
##$FT_mod= 6
##$GAMMA= 0
##$GB= 0
##$INTBC= 1
##$INTSCL= 1
##$ISEN= 128
##$LB= 0.3
##$LEV0= 0
##$LPBIN= 0
##$MAXI= 10000
##$MC2= 0
##$MEAN= 0
##$ME_mod= 0
##$MI= 0
##$MddCEXP= no
##$MddCT_SP= no
##$MddF180= no
##$MddLAMBDA= 0
##$MddMEMORY= 0
##$MddMERGE= 0
##$MddNCOMP= 0
##$MddNITER= 0
##$MddNOISE= 0
##$MddPHASE= 0
##$MddSEED= 0
##$MddSRSIZE= 0
##$Mdd_CsALG= 0
##$Mdd_CsLAMBDA= 0
##$Mdd_CsNITER= 0
##$Mdd_CsNORM= 0
##$Mdd_CsVE= yes
##$Mdd_CsZF= 0
##$Mdd_LrLAMBDA= 0
##$Mdd_LrNITER= 0
##$Mdd_LrRANK= 0
##$Mdd_LrZF= 0
##$Mdd_mod= 0
##$NCOEF= 0
##$NC_proc= 0
##$NLEV= 6
##$NOISF1= 7.934625
##$NOISF2= 7.601621
##$NSP= 0
##$NTH_PI= 0
##$NZP= 0
##$OFFSET= 14.8115
##$PC= 1
##$PHC0= 64.93745
##$PHC1= 1.960938
##$PH_mod= 1
##$PKNL= yes
##$PPARMOD= 0
##$PPDIAG= 0
##$PPIPTYP= 0
##$PPMPNUM= 100
##$PPRESOL= 1
##$PSCAL= 0
##$PSIGN= 0
##$PYNMP= <proc.py>
##$RDF1= 0
##$RDF2= 0
##$RDFWHM= 0
##$RDINT= 0
##$RDPOS= 0
##$REVERSE= no
##$SF= 600.249940102185
##$SI= 131072
##$SIGF1= 9
##$SIGF2= 5
##$SINO= 0
##$SIOLD= 131072
##$SPECTYP= <PROTON>
##$SREF_mod= 1
##$SREGLST= <1H.H2O+D2O>
##$SSB= 0
##$STSI= 131072
##$STSR= 0
##$SW_p= 12019.2307692308
##$SYMM= 0
##$S_DEV= 0
##$TDeff= 65536
##$TDoff= 0
##$TI= <Test4_extract_NOE

>
##$TILT= no
##$TM1= 0
##$TM2= 0
##$TOPLEV= 0
##$USERP1= <>
##$USERP10= <>
##$USERP2= <>
##$USERP3= <>
##$USERP4= <>
##$USERP5= <>
##$USERP6= <>
##$USERP7= <>
##$USERP8= <>
##$USERP9= <>
##$WDW= 1
##$XDIM= 131072
##$YMAX_p= 320376232
##$YMIN_p= -213914
##$CURPLOT= <PDF Complete>
##$CURPRIN= <$PDF Complete>
##$DFORMAT= <normdp>
##$LAYOUT= <+/1D_H.xwp>
##$LFORMAT= <normlp>
##$PFORMAT= <normpl>
$$ End of Bruker specific parameters
$$ ---------------------------------
##XUNITS= HZ
##YUNITS= ARBITRARY UNITS
##XFACTOR= 0.0916994535006012
##YFACTOR= 1
##DELTAX= -0.0916994535006012
##NPOINTS= 131072
##FIRSTX= 12019.1390697773
##FIRSTY= -3355
##LASTX= 0
##MAXY= 320376232
##MINY= -213914
##XYDATA= (X++(Y..Y))
131071c355L43L6k12Poo29r90l77O05J093J114R72N14k36o99o39n53o37l95K64
131051c780N96K63n3J31L01Kl20j93Q1J13R8J94O1m03o50l46R5L05M94P52O20
131030a639r7p86q20l17K11M22J94k97m73lN22L59j78k11J78J76j95j07M48N67
131010b046J10n0K51R3p33j120m59L80N54L85K92m2o61p77r0N06L37n1o5o3l58
130989c607l79K09O18J96m11l41J01J28k14l85l39l15j91K10O24P88Q08O94J96
130970a610m72n84m7K98jl08q7K01O3j47J0K36J81J52L87M67Q2l13l05j96l04
130949b297l63j99k17n61o49j52L53L83L09M94N38R4l40k61no2k17r3J15R2l2
130928c070r3k38l94j65L18L19k81o23k22K89L64L78O56P13K57q0J52L71M1l39
130908a647j95M9j83n66n59l77m24m71j95J27K27L47N60M06j40k95K18N61K38
130889b319%L97O37K0o61m22K31K91%J45M22P0m87k44N17N38l62r92n93K59O95
130868a858N39J20j59n8K35J87k99o25m41k36m21n41j34L18J63k82k95R6L55L77
130848b959L57K12n1J7N21O99L0p44o82q5J61N4K06N43M87R7p3k4j88m76m10n3
130826b361J12M9J04K52J51j55l28l24k97j32K69N62M44K19K88M32K34j70l73
130807a024l86m21l93k05j16k56k74L2K48N0k15k03j78l32k68K09M70K8n58n43
130787d335p4L11N84Q49P70K21j90l1K32J48P9K90J96n08r45l83M12L39l14n76
130767b925m27l95k85L41R62P81J24j38m8k05m40k09J94J49l3K72O06J53o01m73
130747b597M09Q27M86K33L19M4o87r87m69J55K91K15K92M10M30b31c0k46n31k48
130727a055J83O0m37n54k54j43k97j83K68N35M27K30Pl86o96n61k53k39k86R3
130707c541N54L75k64m98j89k4k64m60l66j92K1M00O71N08K60M55Q22P29L04J42
130687e57J68j00m56l25P1J3l63k54L53O44L55P8J11J15rK7C6O1b7NA47h9r32
130664a021j014m21J3n2j20M9Q7j53l54m20m85l42K25O67K97m61n46P8M55K69
130644c249J90N01O00J79k34k09K1J77L12L68J49j64j88k1o4k37j73J9j4j17M7
130623b107J98r0m11r5N88P83M18R0p7l52n20k44om04r07n93J95L83L8J30O56
130602b327O38m7m51k65j35k17M6N39M56j52l21J24L21J0o5K74K86k16m56j84
130582b142o4k78j41M29N63km01j68O4j56m02l94m31m49L3P26O98L1j20N09Q01
130561a294K03m13m04l42o30o31ON28L76R3J69J92j21k51Q0L00J00NK39K07k49
130540a837l64J54M45j9n16l75kJ00J98M64M07j25m65l02k20m08j39P48a106M10
130520f96n30n64L4M42N66a72B9e19r08m65Q0N6k07k28k24l64k22L03M94M7k68
130499b425P5M56K84K3J47J67l40p35l48L73O72O12d84a50k24p12q00p61p33l60
130479c740L26O03K66O0L75N97L71K66c26B43O9A25R8O3c86j120o32p3j86k65
130459b662L21P23J38n98m38Q7K5k03K04O96L20m54n12KJ72M9L05P29d97J18J5
130438c64J58m1l06L3A16N52k05b53o13k77O7M20a97q1p17q14n32l62k62mJ53
130417b816J2k6K48K61k38m18K70R21N89r6r4K01j44o65k40P34g22k20q01k40
130397a983N02M53j03m22l64k09j30j30r4J38M33M12R7L8L88d28J95j28o3q7m36
130376i47m15K87c73R7o50m88Nk66r09p37J55O47M88L63M45L40K00b30D50J59
130356F09a03q80l45q3l88n98l55L3L99P52P22L8o20l96L56N59O9l23k75j59j11
130335a708M2J18j39l13J02O83e26a98I8M80K47k74A32f8j20j09a25B54L4a03
130314b76eD6d71m45J45K26k55l64J03L60J52M9J42q8n39m64J48M58K01j9P0R7
130292d94M2a69D64M65j21l78k03G8a40M3B69j6e89r55j25N82N31b68G8L81J18
130271E77r8p3j16e3m68m35m79m69j05L21K94P2K42N19J86m37l34M46G6L12r7
130250B91j0l6b64q41o13k08J8J85K64K8k48o0K83J2o48o65P5N40K65k9J82M51
130228a273L52R7j48n05p23l86J14Nl99l1J017d97I4a84m71n41q88q44p4N19K42
130207b241k16J5O07P81e21b58j2l25l16J17c68a32r9k34m08p57q31l36K75M80
130187b042L70K32R5pQ0K12P1j45Q0d78I1C7d52k95Qo4k72l24l14k15K43Q27c2
130163A21c17n20m44m44k38J57K06j29j57L65P50b40g5F3K21P4j31E1a35k02o7
130142d04O0j38m15j74M34b0B14k9O0j6a50m62j38l1l23l99l5J90L2j2J86L6n45
130119a651p40j72M50N36M02L71J84k29m02k20j49k24O4N78N03j03j35b28A045
130099A875J41l7j25n49E61B50P3j39b09k02j08n09p07j70L50Q6l73j58L82M00
130079a218k6k94l73m50k28M21Q03M02j75j92K1j48m10k17R4r7m86l73J19L53
130059b474K86L31M51L36J17J44L09b18h9B2K11K84L16J70l48b21o90J29b07a8
130038c15k70j61m19n75j82K53J14l04m42l84l63j49L18M82J08j25K50O51M76
130019a037J22J46K64M5k09j62j40l35j94N20IN91j8l6J85J0k31lK82N7k83j67
129997C96MA00d43n0A04M49j75A10J18O7b77j056j003o87k81K06M45J86j43k2
129977b632L62N74O61c18G2b56o32p4d73K05l78l26O8j8l34q1N65hD66K92K07
129956I65j61C04C4J21C5f78p04p5K68ql71m64m03j83J90K52k07m56J76R89h24
129934h29l99q6J49M9Q1K27j2m45l20K59L88p4k55J89M93J05m92o21k57K68P04
129913h78g6C97J01J12K84J30j99j57K00L05N2j25p5o0j28p4Pj40B75a5n6c3B7
129889B04J04d8o92l83J23R2k65k23J53K24L1J97h6G94N31J22j51m81A09b92f1
129867D40K27j35B35a32l27j11kk30l54J10b78E57L63J4k8l8P0M98P64K30o64
129846A766q09o7N54L89j48m31l70j59J7k9k52B07J08L25K3C25H2C5b14m78j71
129825h63K60J10k76q2c63A61l6c12m62m97n05j41K75J05m10m92j52kJ6M02Q62
129804a313O50jj62J71J74j82p6b17D59J35k88A23A1c37m24j76p9j92K1M98b29
129782d02m68jM25J12n11p18n04k88k57l74m58j92M51Q82O73K92L19L63j32n54
129762a342qd80A78b59p35K67C90P64p0m04C06f4k05a26b6m02m94K42B96Q58J58
129741A312m15A73g36q75n76k12J60N85O92J11n88l85N52c34f0m83n13j71M3L48
129721h36G5J194Q05K06m6j6L8R8N4l45q63C02a37j50k43j94K64B18O95N00K71
129700A684k2k12j00n1m57C6c27D2K43c26q45m0d88A99L13J8H4h14n73M17a49
129678gn51l75J47K40L4j70m94p50k87P31c54A13a20k31j26m39m95K43b26D31
129657B93a22j48J2p0m0a70C03O38L94m26c14j090j97L19Q7p7J90J75l54m71K38
129636a494P27K03n07l80J65K14r7j21L2r7l45k72K6K28L12K20k74q73p93K6O70
129615b430O30M08L42P4l56k19M55d91l0l13K81I0J1e66n15k42n50o03L43h96
129594b8J2E5O77N28k08l11K63M09j97D20e38q75n18J65O04K89j87Je27B9J77
129573B06R9K81J90o2n5o7G1h32m95K66M09M2N2f1E65K76LJ8J8l7K9L3j92k05
129549E08L24P80M60k38n04m43B84d69l71J39K1m11k68L24M56J7k31j5K62f8F59
129527A250l33c89j198k42K63m7k49K11P44a38C21J30j85d6l2B66K67j09j23K64
129507E65M38K07Mk2k27B84f62p81l86K4L51M28K72K86A25O09j2B29m2P22O06
129486A515k24n20QL65M3l04k47l11d70j001m05L43L52j95l76J45P91H1M49j8
129466E12o6J66J72k22c4n27j22K52B0M96L47J03L8J35l6D93e41p75m0N77BO03
129444F05J92p0J78O16M71k82p52D27A16d79p79k90L17L04j7L4L46a18B80L85
129424F65P8A83e10J59F72P59k36D85A16J43M66N84K39n57A9d44J66k9n88n11
129404a406j8J6k40jN12M22q8n7c71B20R4A36j0C4e51p23j26N82g1C15A22e40
129381a171o2M40c67a01B28J78e5p74j32d40R1o71l00d98D84o2d02n54j20j90
129361a266k99p2J68L18e15B90K51C6b66D06R63J03p10A61F7J99M52P00M35k81
129341A572n82k27k9l50i8n4D5a99p28n43m2J10l9p5N2J85K64J42l00o68l72M28
129319a785h36A4M72K9Ch25n06O9J18k47j95L83d93c3H6D1a65j51A92J189P55
129298B136o64i4j137j92K67K81L01b08A97M31J95C16g94q16J18O43c80a10B57
129278F93M64P12P43r9j231h0n39r3m13m76J38N32K46M5L05a4j55k50g6E44Nf0
129255e13j16k33k52L84C14R26L18r1k81m30l27J8N6A60c56k12j01m82o21q6L89
129234a469J59k52j78J04J53K14M64L55l92j002p19R5O68Q73c3E97J10k19j91
129215B97A15a46J5D30N91lk21M13R31M36n12q46m60N4L36K72j55n24l15O4A65
129193a069j242j1R90e73K08gE68m8c45p38K3K36k50o03m71j73J39N04O18K03
129173h57l79n46k74J02L83M77L26J90a56E89N72J12J88P49P74k3p23p94F28d22
129152a232R6d56e7b1A60K37j59B5M99J017O04Jn6j21o74C73F9K41o1g1A92O27
129130H19l60a114j190M08e52E78Q10P46L63k43l04N5o7p01B68c70l40k40J23
129111h27a63E41J67k36j48M2j4A14c98p54o70q1O51b36G13O81L69K35M49O46
129091C093L05j78J26R30P85n66j450q21R0j27q20o50J29M31K80L18L15j58m97
129072A535j20J29o05d01p25N13b6m42r38m38l8k15k78k4p6m26l22K21L32j22
129052b792l07J07N41O77P47c87L3o12m47L17d76K09j23L5a02A56K39J37B48d26
129031h65K19a16B07la47p53p30M9g55g4K0j02H4J30b58p44n80o27q58n49K90
129010c326P93O71M51L33Ll68k08L46N59K84J6j47m27m90J55c19H95P64N04N10
128990B673J46n41q41o55B71a59n9G0K9c33k53b68I4k4B2J03b75j167r31K37R00
128969a236N87L05A65M15k65c41l60j09k45j25M01c10j44l83L50F93J209O97J74
128950B773m14r52F10N0N20J0E23d8b3B87J43q5j21O8L71M14k7m75B29LD5f06
128927a050L59e4A0d28l37j46j45J09c65A33c6l79a90C80l3c70n14J70b84iA71
128905C11l2j16N7J72L1m2J12J06k46a67m06j63pJ96a85e4l07k26a35G19M46k24
128883I41m61A59a9q6c9B51O03Q20M17p11b08j263k81J12m9K54e03B70a8p67J0
128862g75C2N20k51b05l52k43k5L44K29n33r45k59P98a02D81j2A01d05l38O7K97
128841c79a61CK49J68j8J80O60O62N4l41j48l5m40B23b71j7J16L2J8M8A01N63
128819F64Q30M02l31l76J60J14p00b91l91L06c4C29P41N81n23a52o00a19H64N51
128799A415K73J75k26o29m40K1M2k61F7b9j8J9B10L89K30Q8K34L12K6l12n08b25
128776a624j184j7R67P84Ol07j88k27k67J69P63b73B60L80M40L77J80mk74o16
128756G43A55n4L42Q3A27c18j53k5j75m06n85n24o6M57N04K36L11i0D15j05C3
128734A66K32j40k7O60N54F32a208j252p5J84j35R2O76P88b69F93J264P33l07
128715B383r44C18i17j003j12P00N88Kj34ol48r28r13k67L47O17N76J67k83oQ96
128694a024H7R6f32m74K58J30l38q8L47n2o40j84P32c28l03n50q7r9n28j68Q21
128673a242c61k04p84n7f53a17j40l72k48j29J01M06a50l5j48R2R0k47l36o0M9
128652g45o7J57GO61K1B78B3a25m70o73l76m4p5j57RK02L15O55D21J208N65j96
128630A998o11E30d92p20J19c22C31J18j86D7b28l14l7a03F38M59j31D49c1k81
128610c12k02j05K62B22K13b51j093m61M56f64K37k69n50n90k71K29K69k94o10
128591b513k4Q38g16b46M0r0k07l50m53p19j075q70O2Q01O43K70N64e36C98K45
128571F43j89A27c74m12K01a0F4c71Q3E94N59m52A94M27P15k01A16g11k82q2N5
128550a020M16B2N22N05O57N36R6k11l26n65E02G5JA4b10A5P32J89A6a013j40
128529a153J15o70r01K18a193e43n98j002n12K4M28R15a78D25j36a07k38j01K5
128510d21h9E08N07J43k85A49h34p40j09L39L86L53b22E9J81M61Q32M84n66B05
128489f85o0b75C09L97j09E0b37B07N79j83a69l94K63e6j37M1F03J109O42k03
128469B151p90D94e6j67l1j48k48j92j10j30k36m01n19l50J34N11M74L34M85B2
128448D76M6m7N5j00D0c32j68j62j55K18d8B01f0j79f1j02p09m22e48H22Q46J48
128426A816J7r1o13B06c21mQ6R3B61O04K48k86C65B2a32A0M14K13B04f44o81l66
128404a691k65j68P7J96P0k3k8j79l08M5O77g83L22r6q2k2j13n2J14m4k92J71
128382h77C93J821J154n3r24A085a64o75N4K75P3J67B77M21k70a41j13H1L05K26
128362F12J83C63a066j530l35Q10Q67N78B09J220O00n31E71B17L45N20K42q3k9
128343A212M79Q30L36o14q64j87L80J43l96o47cm84K12G21Q64j65F50l01L43L62
128323A054K11L79M20N2j09K20K95k47o18l33j09m03C06j9K12B49a33C41J196
128304A537O81k89m91k31l26l32M39J214Q38k24p23o94D25i19r35j6L55J41K03
128285a171e54H4J95k0J43J48j04j58O0J85J69J63n4A77g84m04N50B48N22K12
128265I82K55K71O5j60l13m26l32J5K42J25J2J36J04k69C44K38Q18N10l79F42
128244a07l34J40B69O26K55LJ50J73k68n65j76L98M68K30J31kl16k96K47M69j89
128223A607G53B09K15L10k16a4m92m78m31j24J73K65e45E24R52l3o16P0Q76M63
128203B236m45l58M16M86j16k34J41m0p49D74j86L14K97L94O97N39j05m56k95
128184A673j69k10k8K71J98o5K1K26j9l70j21L17Rp17C14j7J44C3e27Q8A96M96
128162F92J70M6j17k74j8L47O8C38a32B84Q42L15k04q7K4l26C65pL45j09a68o92
128140h60o6K81R7k34m15m49l91k71p7L06Q60c4H94L37q4k58l68B15M8L14R2l27
128118C42a19m74p05q41m42Q1M8k85k00J70J92J7L04Q37f37K07M8A11P38L86l7
128097A198j51j95k57r7J71J28j37j44P2L9k55a2k79j93r2J42a98P0D8P64R73
128076A785K53l84R7P87J96j135B03b79j5m74n56L39A03Q30J49k74B27e73n17
128057a090N8Q7l68k98M59c29e7m19o17n80m06K77f43F13M97r2r9j61C08DK37
128036B41K06g4q71m62k31n88o67m7M45L86M99e94C97J24F8d8H4c29q38l59J29
128015a397l62j109r05ON92P24R33c07H77Q46L15m28F17g3A65N96J7C27j48J84
127995C63rl0N63Q17J2G72a83l94r0R8a56A2i28j619p01Q11J123K84k16J39N41
127974e66b6D82N57L92J75L36O18L36m71j066B67e68n68k89MK96e16B21L87j75
127954D33A52M5N2h7k29B53R05J36F35A87K4a34j006p24K38O14K50J29a21E29
127933G35k98a4l31J4A66O37J84k16P8N07J39p26a63k78a11C23N20Q09P45K3p54
127912A666G84C72P6J72n6j86Q7M82M27l3j56L11N95R8n96o65l44B38c15l72P4
127891f13J51r4o7K27a96j94l76k14k03m46l81K34Q44iF41M58L90K48M6J3K76
127870B072O25N76j74j245G7a311n99n3K59O10b83B26k8G3L65Q47Q02L72j7k48
127850B194n22G50d37j025n41j12J88O87I3J371L41H66c39l88c02B25K22p7A4
127830d70j39a55D10K8h7o59n35k55K53N53O9o72m54O31a37b3o53n7B74J038J72
127809A484l89l16j60q4R2N3A55h68n82M55a20B02a06k57a53B47R2f7p04o71m47
127788a889j49K90Q05GM68j52G2PK8A2J41M73K00l74B11M70M84m97e49r65n51
127767b065n89m20L26O78j1p43l99N65J099d45D97M48k77B69K71N40l20d09p35
127748a144L74eD07K03K40L3k98B17a91o31n00K25d71K8o96n21J0j32o23n44j17
127727c066q7j67K98Q46O29M9P0M77M11NJ7b15c9k04k08J4j8j1e8E91K03j74K22
127704H42N15k68h9q05J99J97n21l35f30C87J83A44h3j47n64o54j07L29L54d00
127683B57K94A50c50j4a64c8D14Q61L03F89e26m80l8l13j48f74F26M90n41a60
127662f95n91m99J66h03@D07J44Kj16q3n6a14q94q16k41R3R2L11O80c50L6J5A22
127638D38A22b67G1P44K45l27l04j53e0n00m94o63q53l61O49J109c62C31J083
127619A414J031K04l84j82k9m65p13k67M1B83c18Q0E30L19A17h66j90c82D51K85
127599G36B35e79k29a30F89J41k73N2K91j21B40a16k8o2j25M5l8n33o52mN30K42
127577g41j61J57i0C15C6d28j88j52l06K5b15A086R66K02m19o58n56k98q5J15
127557C53M55P88P24K32k47m35m24k69K3J34k23E12B36N19P81K02m79E63g5n16
127537e91k11R1jk56q9K90J33l76k69M81dC18l3J50J42B04d04j88J41J1J54E21
127514A474P4p51B16r6h2m94k86Pj86l27K04c85A25a02m91k54p0J23a60I15Q92
127493A807L67J39J96J77J11J09r9n64p41m04j86C99d11n84l34n67p62l16L54
127474b620O36P78h1A074M41k43k3N54L75m37q24C84A45i3j62J09A11K17J98J68
127454F94l5k01kM26O74O39M49J63j42k99l59n23o21k92J63QI0g19j66L50J24
127433d11k49j92r3k62j87L45d98J4m22q3L78K78J33B12L51d3j320n58Q44H9M04
127412D93o3J73K67o9j91N6P2k75G4A5K15J02A33c60p44p44l40J94N24P08E9O45
127390G04K31J43M50L51m53E20j24J050J226M78r9k12l90o61n73k72k82B50n5
127371A95N85P15K33k20l57m32B51a1p0l26q17q88m21J09L86M42L25J61K03L65
127351e42J87k80k43c42G22N74k39l58j2Pj68M4L87K14k16k01J14R4j37m2J49
127330I32j51A54c33P4i1k42l20J90A66N57K04j84B00d07k08J88J5m63n26j02
127310a503K97M52b56A21Ma96l03j60j41n4J24j15q34j105l16P07Q56K99p5n3
127290a366Q6L88i4F17PB94K52O74j04h2j113q7M91L20J27K3l72o26o7f85a48
127268d88p30l72L9L24e49A6d63j370o53J095E26J341O50M91J96m67p90o19o23
127249G05a04m40a37F12L85R3P4k31B44b40A8N09Q8j62p6D9g14l97d57E73L17
127228H90l30k26j21c37q54m97J8J67J21Ml00l92L12d93G54L39j48J55K03m21
127208H82A22a74A8J92K16M56K06D62e40m78L8o0p4N46E63J040O99O04M15j93
127188C128p78q85o56k83J82L40j42C26j09O05J59i3j216O1c38A6b55J15D33J11
127168E44F3a66A17K32Q3M27O24P1m72k13K06q7C39c32m14l65j07e34F54O93o0
127147A287j33L3l68f6o65m3J24rJ83c6A47e6l2B48J23b1l55J24e3k48n46m10
127125a257j19J83M68b86K0j86b14D37K65A31g73n72j33J81N12h2D11J41P2J70
127105G94N9k05C17a7k89m0b0B50f5o80k62L78a70b6C3K00J57m4p8L2J16K56M42
127082A114K94l16B73d45k61J24a54E01M96j2k34P6K90qk46R9N31L92o6k72k64
127061A283k73o4M45O60K17k72k04Jk53o18D52l9O9o9m2O2L9K11P65J058N07l48
127039B665o12l04l4Q6K67L21Ql35l43k82m19l46J88M92n1D77c82l47r6r4K54
127018f65A56R06M76J68J83J55lj9P1l0k69l56l09l02k54q7l4j15J02O76Q65K15
126996B195n80o98l87B53aA7J56h2o01j10e6H21L42lj5k57B24c38Ja28j59m16
126974g03j81J33K18b37A97K74B33c44l88J6J62K0j38j49r6j65l92m94k09K34
126954a943L66K35L30c49B82O1h8m25k33j01K23C7N57j26G1K22Q03M99j02j51
126934A342ql90B4g88k64P8L08F8Q16K5F6e73K64B34k3b02j20A1N11N39M44J03
126912A608k06j14Q4j23m95C42L1J98n1B11a48k07a26E59M54D82f45n30M08b79
126891b90q4a87Q2j61i1E85L56D22c65l87k68n09k70M03N05n6k18L04c03a31J7
126870a14C88P28P2D85b35k76p3j37j73k08k58m5M33c16F3Q7K29N22M09j74C95
126848c46p9B46P33J20l03j34r8a36j080l24P55a25m08q18l0f04A29L84L61L90
126828A264J70N0K04J40l52o50k97J67j2b9j139p80R0P14N58n1j94M01D29M29
126808H58l21A69J82M43K61K35M48L27k17o11o00A59b22j99r4k81m20r8L67d61
126787I1R78J176L75q83C73e62l82J52A61J394N99p02E60m3K16B45d53K06F90
126767A305J38K91L29l75H08k93N81N70j7j87J0j33n38B22fE2J96L30K74j63E2
126745f54m24K7c63I83J320L77o38p79j82L10L08J28J28K95L72J58k15l03N3L20
126725B635k8n89n20J96P52P41M67Q5n70j210G62A42a69n50p17m69k23k05n0K68
126705b115J72l99o25r4M68L79K6Q9M42N13J75k13l15%N52a54B28G2A1M56M34
126684I01l14c24q02m18j95R3O09a02F45L17rj74j15J63J99m34f05j093j80M42
126664a436K98N6K10L69J93m8j65l38m83k70L6j36m54qJ041B92P33m4j98k13I3
126642c89L3I0L53J00j76d25j330p39P62b65C83H5d6C57J73A22b47K2l0l03j05
126621f63c12F1N6m3P9Q1J2L9m7f4k62f1F32N91L32K29o8o41C15o6O06M50j29
126598A176l71l14B30j0N07O64J38l46j83Q3k11B17c76l29m55p10n33j14N8R4
126578b365K84L42j9l83k90j1N0Q5L14M26K39J54L10J77l44m39K31d98a13j42
126558b55k3IJ01a4C12J005J014M85J21j4k20l47k73m14q19A77L11R72M13m17
126538A456k06O21P65J93k02l11o01p68k51L70R5D63c07o6h5j19n36m78k52m4
126518a514K86N01J82l55l69J30M57b79I7N05N04L26J48r3m39D70E0d44j014j195
126498b653m41N11P11N15e93E15O22l84A6c05j13l37j50b02A071Q40j26p88H5
126478f26m05j52K5L12a11H03N94R1k03l65D20F0J16M28K61j2j04l16b48n76J39
126457f85a20G9h3C8L33A35g16n88K1K1k84j36J01j85l58L71e81A84a24m97K34
126436c87A76J43j42K1J12J14L80M41l56c35q15N05D08M31j26L3K14J7p1Q6J8
126415A010j62J50P22O86J25o0J83J39r4K06O32L9j245G94C78O13N08p6l43m15
126395F65B96Q2M90p6d24j373k70N57K55j72J20M16L4l96k34K3m9J30e21G56P70
126374A526Q6l9j23G15d93p69N5L08J17K18C4P04M40J14j74l68j86L36N40kF51
126352d00o89o9N40C35R73O41K53p8m00n35l21j43B87d82l70d00A77Cg20l84L24
126331g80d8G61N89n2E79a06p2E4L5L3L62K70l47a33K9B71j21d95l95Q5k8l97
126309a230k12M39a64E54L38p3l41A81F8a02m06l41M5K40J13O9a86a0A14M57Q47
126288A418N09l42n90o4J13D90f07p23J3L17K45K4m54q93n41M47Q41K08l53n5
126268a531L84K30N6c69E46O24K22N68J171R35r6q77q34k96J78K12k13n63k57
126249A320M21O18K68J01J71k60j021G28K65Q73J29o52k82L38Jo07k12P11P72
126230B064%m84m67E46a44k37D7L30f5q28m55K7K13L09L14nl54j30d39D49O32
126209A081J19m34b87j429j091j61P08a117G5R13L97M3J52L72J30n13F52b6J0
[...]
6372D30O76N93j84D54d97lD1L58L32O70M56m46F10o0O88N53P2j76n79h8j123j17
6350a328N51P5n38j75N69c06r6m13k23K8J28J9l72o84l16M41N96J15O2c29E67
6328G90k68N1K04B56h59n17O27C07O60K1C59f62n95L58c68m24j106n13M26N90
6308a395M48a78G95L22m60l14L32L75j61C87a28m91k77K25a98cIK84L61q9k68
6287B97K14L58m33e52k66c9G18J21R2M59K20l96m43j07k41b19m97l8r7m61k59
6266a571L06K47m05o02LO48f48c11k78q84j002m00L78P10O78N31R4n12m48N70
6246h74E13R42j49n97l01MJ51L29J88n21d68n39L91H6M16J89J3B92c64k54J85
6225d33p8n16k15M53c02Qj28O6jo8G2J170Q01m66B99g35l93N6L56b51b6p1o0q3
6201b40n17p66j03g51A80J03a60k44P5J31cB97J38j64H5b5l77o58k88M44c10P8
6179b32k26R1A33N57L56Qm83b46o92m00l63l36J44P75b31B98K70J50j54A18a42
6157E8L63K54K83L17l9n26A49a24k44m05k57J08J43j34k19p7j00k56j39K51N48
6136i05b92A88L7c82q20l10K81L44K59a19E24J19A36b76L5o1n34m72J77d93A33
6114F37L25j04C45a29k38l00n10m77l74m46l23K20N15Q3l13R7O80N30J75b85F77
6092A024B68e09K13C49O1I2J85P71P51M64K37j31n17l86J24K22k35n54m37B30
6071b93n69k94J01N02B66O73J5l87n0K34l20e27n52M03a02c7A7O23P51L27K15
6050A933M51K36k95j73M80N01k21n50j32K05K28N81J017M51q85j329m57J92k79
6031A954p31j92M54J90l67k36J95K7n57a0m64k20k21k61r4M61C87J260J20E37
6010f97m0i2D9b91R2C92K00C6f58l17m2J03L46a09A11D2a13k36l30o0b44C77J05
5987D82A51g2n9k38l35PL25J66j12o5P8l9j89m0K16f9B30M28N28M89M86N52L54
5964C067l11j153d3j371k25d50A247P88n72D02b58k91k05Q2a07F22O41P75Q67
5945B905K94n28n67Oj0p38C93A15K58k6e9k69q9k26j49L62A09K1b25L2C19L13
5923F32j85A74q4A0a23d5C42M34J94k09A64c84J64F31N88l23B49A24K04A42d10
5901g50o3j15m1L75a04k2m58k60J06J04j6K1j03m93n43M8O19M97p3m88m73M6f60
5877G71P92m93D0c82h6B82J57K0A40f40o95n5K33p2p1O07C07M62k66I0b66n60
5855h26n47J06d75C31L89K4l52c66p17j48J79k06o76n43j9L97O52f70c1D16O55
5834A071J020P63j34q57G61e02j252n93J83k5q34o46O48J272M90k01K70c58C8
5814b29j89Q1j80l96k4K16j58j86c68H72L91E25a56k0j05o17l44N28A30M74J69
5793G73M7k15B92J08M13q9h8q28l83k22k00J31L38n4l51K12e13A62g2o20l25r7
5771a114q2J35M48a68A33L27J82B27f27n77o2J15L72B71J294L83p49C95j41M5
5751B99D4a67d7C4a17J3A32Fe54j08A58R71K92j01J04Q6n00A08c68I1J174J174
5729B439M65l41n11k14l71C70i27n16J56q2l37K49f76J79p28n26L81N76N3m6c50
5707C14M64K88o4A1a750j326q2P00P79P51d28l68j079n63N05N03n44r94k15P12
5687b471R71e56C44M98j14j48M57P50K45m52o82C99A85rm0g7r5A88M95P0o4N58
5665A247Q65j44D82i97k27d32E97J046R16K32n30m48K23M15J5j73J9J10J39L99
5645B960M31j87o35n6O26j5j361A91c38a10A02L73P78L55G32g23q44p2K31N60
5625h48E3M56e1p43K60E41Q17J91p7k75n21k95K88K55D19d51l54J30m3k83j27
5604a128j6j47nM25L95j22j82c84B04L0c6B09O79L14k26l05C10d62r56n21j13
5583b052k17k43L27R33c03D14P31P14L03j83l79m68E30D5d6B0a84m64n14o36o79
5562b477k2J144B94R77K9k93j47L3L44P64P67K00l23m28m62o01m19J20L09j05
5542A059l90n2L15Q5m07E0c79l33j86J95i2F83O26J96l56E72k47O6A61e08l98
5521i06L05b04j34k54K57F4b22r44q00j89L05O11e30g4G1K56M93J76m04B78L20
5500E98L70l38a02l95k06o04p61j04P05e25B06L07A17h63p16J74O80e0H97J346
5480B243P18q36F16A23O85M99m62a3o13m06l36k08k07l63k16L01N92N20c08F11
5459A178l55A51F1K05a05p97l86m5m72p69j24O44N71K13M58I6Q09M51L40Q0o50
5438A126E6e32j0j95n37j63M45L87k2J1K64J58P2D17R24L38o82I7a69E5J74j3
5416B16j04f9j10c7C7e12r91n31L76Q26a07C71R2Bf35j04b42B53L20O48J097Q12
5394C130q2p06p53o46C04b70l16J12A01O96J78D83D2K41M83n6B66j29J84m4H8
5372B98M44Rl25Q2M62M1n00B24Q6br55p65n7Q0k88j96M10O65L36N8J56b03B69
5348G70K19l61Ca99G2J43I4K61R48R66J86o05q62C16hj41l69o93m42L02N62nm55
5325a249q7M51M04J70fC56j49d50n21j90k60k88K10N56P2n06k00M72M18j28j70
5304i85K63c00E1N32O04k4D15a46AJ97a32k95B9Q52M71O2Q3O6k48l85n7L18L04
5281A495o7n41G5d77R4a6j60q19p59j44L28O06C3J213P24j58n74l43n8j28B95
5259c60o38j61e79C69O01n5C95c27o44j34M70a81j79n75l98k47l37m6O99b94A82
5237C84O00P19K8m82j29J78k65D65m1L25k67b44l9D82M59j30J89N92j53C49b63
5215C38P43mj15L67J92m28k18N55M96k61l18L05L06l12k89L17J75p02B69D3a28
5193a070j023P8Q93M90j59q2L15a25C21M64J95j55nL63J71k94j05L99K7D26e20
5171b39H69O62l8n3J89J76K02L25K5n73o14o7J02l43C48j14R4j33n5N02O79J61
5149A482k61j30J1j93m02A1g05p38l3f64a2k95p18l62j81l02J69e92E87J45A46
5127a45M0l42p99p09m28k02K78P47M06m68o20O7L12k53m51K07O23J63k35R1M31
5106a287K59K11b47B42h8q34m02J39J66L09A62R40Q8n64j80L80J20m64cj27M8
5085h2E3K78J44j96n8N16N70l8j79N19Q37J00o12m36k37D18i65q25J66M64L61
5064g99g9A145J033L46k0k0j35l71m42m32m37k46M7q1a58n28M8J39n97r84k47
5043b327O01M32j79q2N49b45B18K75L08K02p1k97A88b60p3A38N67J48j39r0j82
5022D42A8a38D17O96o4B98d09m46l53j5N05L22n62p60L26d0A060K58J4J90M0l30
5000A232m61B76c11l95O4J13k65j42c14E42R2A61m1M35Q2C18M5M45P4l67n4L62
4978H23M6l64k0M84K13m15B11a88l90r2c5F91C31i08o44L94K42o29o02L42h85
4956i1E07L21C87f98o97K55N63K25J70B39K16D0f29m34k98k97N5O81G0Q52M89
4935A411j34C28i72p92o0J58J31L99d41H8J23F8b96m75l1a77A11i45j667o56M41
4914b827J98l40L14a327b23a1C05J117R56j11m60J63L14m74H98k61M90K98n21
4895I04a07p23J06E0O46qj86K47J94B28i04j94c05A23b51p6C81L55f6j039j83
4874a288M49c23D50R96J96D12a346j179o79n73n5Q02R08K34m8L42L91k20o28m65
4854b516l23k78K41R43P66k15o67j04M99M91L58c50A30M06N59O00q4F71a12D0
4833D35C1i52o63k08j91j39J81J93k14l22O0K54J26L85d24G57M10l10l49k23c5
4811b39B5L70j74c44k03a41D49M32K40K3j08J44N59M79j58o81F46Df00m00j3K43
4789g70K95b25m9o30q72l53K50J47j87J04N81K78l98k38N60c67l1k35a54I27R82
4768A909P24N18j54j082G22C55J94q9F3g8D7j8h7B3K10m7i6l86o26p49k95K45
4746a907j4o00k17R38e28a45l64k25l3k55j19N32f2m58j109m58M91N77K13K47
4726e59a35I1RK13M46K95R9J09q6E58b85m86j71k46j87K21L57M5O6a8I04K82m23
4703G63C75m4J0N1M12O66N01L61M83L63j91n79n77p66h2p78d05G43M52n37A17
4681A47J59l7O4J97k27e42q64k94K52N25c15A04l2c04l68j71P9L80A4a78r05r17
4659b000m16k20j61O35d10A240K10F32A73J78J05m8L05M37j03l82J30L40m94f02
4638a394N8J49m2L62g6B96C3e7C79L29j13p7J19j59A33L24J058O19n44F02E6a57
4615d21j59O6m3j86K43C17O38j04C82Dd74p22m97N3J95m4L5N11a35F12N88K44
4593A444m15A89b56A6M03J0k02E9b03k43a28G51N53l49B44a44k58n97p42m08q0
4572b229LJ60L96K90r1j01M40b19F09L36k33D1f57k04L30K45l55p07m18J56N03
4551a107M68K34J65B53R00P42N2l21RK35l99A62a239o20J93N78d17H7M8b38m22
4530f60k73j57J66a38H78L34F06a79k77O3l8k11l15l79pc22A532J399m5j051H83
4508D98j0K33M44L91R2o2k7k30F09b81l47a56F88N73O1j48J75P19Q77L70m28r45
4486A942I61B71b8k6k3j73j96o1K6O7a67B69L22N1R2L38J97k95m11NK05j14k69
4463C90J21L79j7C47b48n43o29l41M61d81J60n22j92M94b13l73l52M30B62K01
4443D63F4a86A21M77l7b40j083n45K35M18J12K23eA076L71m01E23C1g21o71K05
4422a187b08E40M4k68a23q91r23O6g88I1K0A3M39M63j18l63j64c2q07q47k62K18
4400a730K79K70K61mk84j57J03k0k18R8O16a41B37M28N41J42l94l16K1k15b66
4378g97J50b78a21B12P85O37Mj27K46J19o49B07c71o2O7J39b0j40o45m74L03c05
4355B2K8P8F4c48j17E11J717J207l5r71j201C35a0E4J70K65M97L10o11f53q00
4334a453M47i2B80q2j7q9c78m50J39a75A43J14K28L20K85L96M26o0n49j02Q80
4313B081R69j4o59k23L26Q4n09p28o09l46J48N64K78m86A72bA88J6L2N44P47K28
4291A755k54j69j08n16c4k42A67O79O81O89K73o95D87c51Q6A39J4b71m94j96L00
4270f61f1B79A00a24A13M40M9B34a80m54o73o04o5L36J68j61j99j16j12RK28J28
4248a695k21j11O50i3A129Q48N88J91m91r09o30n0K99M71O16M94rm70n46m37l46
4227G48j36K14L87L04K63K86O9k57j34L76N01j3m45k85N4Q4k6j4l1j51q4K02K91
4204B203M3j25OJ36J02J40K73J51k54n58o47G18d1l51J56Q8m06m72N3M36a80I1
4181D14J05B37A7J67ke76r75j69O48N28j36n25n37m48l22k62m47n96k39L29L69
4160c358L8K03Q22Q90K10k48n7J27P0L94A53J066K48j95K64O17K24j41Qj39r20
4139A185C6f9H90P59l6j56J70L1l52k72n9m23d21q46j96K00K78M80A95N63K51
4118A009J61J68jk11l55A45f75l23c38E89J43B51j07L69K1E7a55A14J09B4J63
4097A87N94J29B46b82IM80j58b04j14A92P73O39J61m88E66k49J42B03f35n26N22
4076f39E36R95M59r4p01H8h38l74J8J45K11J70%J7K72a41k35l57L41E92N73m74
4054F91c57j006r13q05l85Pr7k47K47R87R81K60k35j34Q0J16J88L19K68P3k0l4
4032g07n5J45HQ55M14k51m85A73a49l35k10j30j94m2L94a68L3j97A4Q62M36m48
4010H64A37b10M0A38O12O09P5l40r7J41l49a36o24P4K1n68n13L14e38B52M63P2
3988G87B02h67o14N18B58J070N63mp16c2r08j69J18r4p6L01d08a33I3J78a69j254
3966a423j051L37f57E51J12B17m9O03P84M24j02m83o50A60DN39Q88M26k65j77
3946A415N46O83j12p10m14q9n48c26q72l80m29n59J7P80P22J15k0L70C3O84R06
3925A623Q73R3p58o71N2L69K05J44No85d2q23K81A10K77oK9A37f78p73j77N8k10
3902a780k42P0R7j57n3L09K19j72n2M33L58j66j7b65A016N91k64n47A27h37r17
3881a754j83O62b52G18O74J11m56D69H7b36k71J78B85K85H0e79j65P1j51n6c75
3859C01J82j48J44M04J24k35k02p2k35b24m60q7b91E30L87B49h91k91c36E00l2
3838D68E0a50l31p55m52M89d27J51j48f7E69J36k54P7M19K16L6L11M67J12j63
3817A926J2M9m00o32j57L17K1D62e05p62l73J37P08A83P73L31j08m34l64J83N21
3796A085l2A48g42ma74A93J39L03L15q6l46B55a21p69p07L4O71b17B17K90L6B67
3773I2K56L20r4B30Db03l30j47J52m6l37L25I89J703K17j266C06a85b5C50L16
3752F66o1A63g1B26K09gn17K05B15k0a67F6R39R03N38L77J52k06j41J71l49G88
3729a314q96M73O02K03d63D61N77j08o1M93N68J27j59k11l49m06j03K25K06J18
3709A378K33J80k72n73l48j28A12d23j45a77C40M53N28M92J91L4J29j23q52c1
3688g76q4J20J67b36b1k94m60m4J30k88l94K74c71a39l17j0dA53b34k09a01B45
3665A92A9i4k80l25J46c8E7e09n48k0K42K13L09E4K6c14l46N7b35B66M36k5F0
3641e41K1b34j38l03K95C58L38j03K17O45L68j02L1L82K57n8o5j07m62n02O9L00
3619A566m32a5q98l61m37n16K20R88c55k09l60J79a97D87Q56N85l63F67j92O47
3599A122K77n73D09L51K53C79e86n09j69j08K17N23J08n67m97M5M3l08m6N69M62
3578h23k03l06J89L24N8K13A42N94j2k41j49b19j196r71L8N47K12J5L96d50B84
3556A092P94J06q32C11J03Q32P22K56k76I32e21p65N95E37Q17L65L23J06l79m18
3536A351M2J82j49j83J87J35m62D69k8M33J27l50B43a11n09n05q3L47L88J57j01
3515d17k13P9A49R17K43n48C24K17L41J6K00P94O72k96r14n49P2K19K0k56C24
3493a72M2B43C3i16n18f62F45P00J90L99N33J80J6K52J01o13r03l46J48j7j48
3472A137K81N68N3p09D19a91k62M0a99M5k31r9b28a02l90l93K45e7A78o7N4Lb60
3448g07K57C15M78J47M79P91J56r36B13b37A08L40j37j36P05J585J347Kj089r50
3428A775k57r3k55M8N60N00J83M91J074P50l73r51n49q1l2M5J29l53j027G85J39
3407I24L61m24c3m33Rj07k4e2E72k4k46M23P28r3D89b1A63Q1a55l62r0k43m91
3384a341k71J7j33k52J71O15M67J72b31C26L59Q2J57K01q1p7O01J070M55o42j082
3363A369E41Cb81a28B90J50j89o7J23A04e61n61r3N4r7m2K36M28b3I02R52L36
3341B190m14n49j67J00J17K22M60N44L60Pm78r65C17d51k29K00gE11K54l9%J06
3319H32k67b74p29J23a35E21M32M54K96k09m77k69j00o3M10J154J050q7q64m50
3299A798Q7l03F79B5d2j68o09m53N3P1j73J23d72B50K00N7L98M01k40A67i28r72
3277a900o87k26K13L49K98L56M51L19M1j22j59j62j4L35c06B88M63K63j79A68
3256d36L0aC8c86k55K67C1N9b56n30l87J20d17A86J18p2K53M41J97J51O51R93
3234B918N53k07o00p44r31A95j5Q68J127P76K03m58j028F08G7A7M5K04N75O20
3214A461J53j81n6m7m48A88c67o47j036p48M71a023a51C1L19N72n6F9b82D85J024
3193A509K70l27l67m95c04j008o96l80j18M00J012A65J159R42M31m87A011g0m83
3174e53j36r1qM4q2n5L13e6A56m1J57K45k05a90m0B56K11H5c20j36k70m05J90
3151i41A7Q20N7j56K68L82o8l85k62o2J06M01N30J17l90k86J84K17k22n36A71
3129c33k71J96d8j12n45k91J30P8J24B79J656R77n13j034k62M02J32l76l61PL11
3108A218M66L87J3l56m71n82a12n32b62G70O83K9p8j75B33a437r27N80f45a0C18
3086G16q9c21q19M03D11O07k12l10K4K75N39P42M00l59p43n71C46b09l46K04I2
3064C44J81L17K05n1R8L94Q0n43l85M44N78l99B6i84l51n0J45f15C74Q08L68Q8
3042A638q7k57k88k22k52k02K35P75Q76O60N65L56l56r63o01K21K30n13p84l80
3022F51C24d59o53K96a8B32dA89P74N95Q3j4J00j5p9K47N82N45M00L29l2p27j043
2999A934n92RJ21m8q3n3r9q0p0l88a49n73K66B44K58k42oN87P26L23j59l76j66
2976A189M49R62P68N4m01l86m02n70m59r4o1l58l09J34J92k81D2J92M75j72c49
2954i86K54D6O94M50K34o7l79D82H5f3A11L87L79M04N99M76l60G68c48k47K36
2933c59M8l9a50c2l16k22a5I18L18l96k62L75O75M71L4m07m60K16J053R77K0o03
2911B929l69j41m88o82j33M22J35n87B11d72m04j4c60D29M68K4m0R1N1p6j64l67
2889D16b20n98k70j90m08k68M26f22fE9A3J63J73j44c56p80m55L73b84C07o6k6
2867B15M58K59C96b10E9O43k34f44p81J24L54n2k35M1M45G8J086R59N74N01P69
2846C967O91O8m23m05l13m03l41j71m48r71D70J10M79m3l22J96M42k63B27a12
2825B77K41k47q4L21J02B82m3O57P25P8m93E89I3a57Kn7l29j71b94B05@e98J2
2802e86E3K47b16m94R0b90iD56N76R2m96A88l6J8p0J90L55j59b41m03b31C75K02
2779E77J19M50M00j38l32K03Q48R34M52k12o14m82p0K9k36k33K15M05j9l43k1
2758A932L46J35j53Q5L54K6l78q3M67L11m16q20p15E06dk32J01E4J95K84J21B55
2735c12J14G40R40K50l92p65a28n34L13E19O91M35O63Q20L53j51q3Qm32p11j20
2714A992N67L46k04L2O52M48m23p65l73j00j58kL35K18l67q12D81c29l76b70F29
2692A106j52j62MC89d95m89L60i2B5R7M71L93j15j98K60N45M48L44J96k37m91
2671A738m1M92J80n83p36m12G2a075j219o34q5L23R51d05B73b29q98l92%K3L31
2650a165b95E22J93q1J92L20J84K60L00l58C45f17Q5a34l50p22L0c91A24a03n27
2629f30m09k12K05b14H71O42o3n72C5g28j61c37C33K43k4M5j0k45A53J71L53K64
2607I41J57j24A79a079p96J26M77L28d62B98K68b05j147o79l86n19k41N09O60
2588b008m1m18J70P90O01J37J68i7E37N35K74k43C56c49k21Q1J57H5N41k14i38
2566b329p5J156C7R36Q77Q01K84k50l50l20m93o23C92Ec34r8a81F1b7j83N6G7
2543D53P98J075M88n47q40l03k6l77A91C2K8a12K0F85J087M00m41n92l06q3R1
2522H41J54k07C0g79m03k73m53k39K90L07n6K47b11A043K30m99o8N42M08P7J27
2501A860K4n47E72j98K45p9A78J04N81K99j62r7%l97g3D5R01O88j11l77l7K11
2479A320K45L76M53J93j52k98n26F16e33n92J06K55P0J11b34B05K99p9b58j038
2459a296n46L94O34L5k59K54a30B24J27N35P72J39n96m79M9Q4k07j81Q1J82K68
2438I98M78L67k71p65B18D9N0L67Q53P74j18q24E41j58A14c99k70Jk80n73j99
2417a720L99N07L71aC31D8f51l04K41J92J06B83J272P64l52p53k80J60K09J97
2397A500J05k85n64k10L82M36Qk72l29B66d23n07K5b48A001J448Q04k17m02L48
2377B982N59m94j406G98K61L36k99l40Q8q4A44a82D49Q72J10m54j89J72J9k44
2357G35j76L0J32J86J60k3j39RJ03j19k49O4K40l16c14n99d20F59P45K09lq4j22
2334A404J22N17N18Mn58p69n94j65K47K86j2j20J90M39K51n4j73l17m77j17P51
2313A373J176O68J5j38l39r52G24j58O28J08E18E6N98O17n95g79j109k37M37h16
2292H2K54a92n69m1J67J8K50D80R73L94k23m54m71l00J40M10P7l73k13K04J2G6
2269e05Q6A06M07K29J62j03C92A53K32L23M4J2K76L81L66N55N88o3q45p40L9L10
2247A631k08o35C00A12nJ44J3c60j061m68N17N60j80k99M25a57O8l50J87E45O09
2226A154J33J50M05L16J2r5n8r7j38q3l3K3J94K88Q9j20MR2l45q32E06J51K10
2203H67l41G1L8J50a24n42J47A51K21a29n32j21k9k05j17K16L71b09B28O55O00
2182A483R5n47B36b33j2pl50k94L69B75L56B48b75k05p3q1J53a40M1l08n1e2B39
2158A90J90O55M00k86l18J45m0A67e50K27C04l8b01e5F80K83m75F4J32K36j40
2137B92g0k22Q4B82Q36P10Q8m54n25l24nN46J036P25m11A187B4c20i5A23B4c53
2114g29p1K53a72C45Q13P48n8r23D5a20F2mNL24K92j23j53L61O49L57j8k21n48
2091I83A46c16E0O58K19m7K40L37j32m77k70p5k33A09M86J019P57lo00p77m75
2070E16K58Q38O02j43m76l28m52d6p00J17dD68L54M85K45k90j33P02Q08k58j014
2049A367m73K53p7B79c79K3e9B57P10J049N43l78o19j63K8l95B30d42j41a43F17
2027A213M4m49A91d01m02R6a46A33e55j320r91k79M4L4R7K20K55K78L03J91P8
2006a645K51M76K70j46p2L87c9A8pK55Od87r45k24L52K04J02d71B40J82A64l0
1984A34J26a24p93l66K59K65J8J27K28j55n15k79J19J27J05M53A54L34j18j65
1964B05D1c49k74b20D81M8e7k01C16O14J43Q6M06M70L18L50L31j13o04o12m07
1943A298m20m22k08If93q35j62N31M92K62H4O00m3i9n54O3J49p5J50B29N82L22
1921A133L32K59l40E95B77L92K25D29i4L3B17Q9N0Q7A93c45o8B52N80j76A56A0
1898A70K04M10O42L75j07q6K17j6n86m78L03O43J56k91j28J30o2m92A73i15j143
1877b058o68J70P06O36L38K14K30J70m0k90k74J60a59H8c98o94k39r4n54m69P51
1856a697D1J115l23B4a53B54N23N81M73j82H03A72J40M38K58L86P06L86m40p47
1836A299l18Nj55k95j67o2N8M95R00O11k00p08p13A35b61d2G76P32K21N5J74j6
1814A942l23j24K50n7q04a5k13A00L77M74O68L24n34C60d90l42K60D02J211L27
1794A940I59c49n67K8JN4d04C4A7a01A57K15h0o86L4B9P10M27N70P28L82p8j22
1771B646m2k87n78m67j42K4J13K93L34J2l78l91m3K98L20nl24j40M91P53J13p50
1749A850p77o2L77J29k78m48B63b61k07J96J20l64n42q8N72D15J036O32j03n35
1729A445j94M23M94P6j90k46m90E88A70K23M58K93L46N98M13j94m73j79J96L81
1709B232N20M64o8p14q52o46C48bF02J609J394J39o17k10M45M93J13l09p03q23
1689B133m00R0l4m05j65M37M03j96l58k7j74D71d15n4A22M82K93M27L58n5j62
1668A465Q2p7n63l64N00O31m31d1q97p6J79J71b63A66m1a43F5N94J79C98e9q2
1646a41F4N34R14P51j2l77J68O89L16m03n92m68n95B67a61n7k7j4C7M23l8i9l89
1623d88J00D5O76Q82O11j89o46k29L32K36j78k32q6j64k26L3J98j01l74j18K49
1602G19J66l8J23K97ql68j11M94O82M13K11J12k20o73p76m77j98A67a01k52m6
1581c99a50B02J59N2L73O69K15p11g0m59J37J52o4j47k54l01J59A7Q91J84j96
1560H96J89M63R3k08L8J24l61n30K40R61N39m34p35l71j39j20Q5K86P6k12n6K39
1538A063P8l64B38b47n17m36L7N15a54F3K14L94L24Kk90A85e33p04m79l51l35
1517b402o9L85M35M1n1M34d13B61N07N93M33j30l82o9J9m53A45F2K43C4e57J54
1495d03E42M47B73f40n0i0D36L57M46M56K32j2k37m47l38J81N34K90j57l48n36
1474H57e3r12k09M35K99j15Ka47B43Q2K0R0j09d7k94Ra06B84L90j29b21m09C19
1450A984P22o74r84n07B20a24KA50a9o44j76a36F53J94n9K01M12N42Q07P27l3
1429C444o11k10L65n0r39I73D58g2r91q91k77n2j71J53P13O20N6j3L88h5A99N56
1407G55P77m1B16a087j91L42j95l88M58E4O34j77B27j4F8e38r19r27n54K99J190
1386a449a50D05A92b50l41j71M6J20j60m56l09Nn9k61l3L66L27J48M88C59M41
1365H00C21a99A80R05N32J25J30r1o75C84Q6P23M63o9j45n9k78n11B49j2J43K16
1343E96L22K56l8l12C49b56m88R0b9D21o2M4P14Q62J32n36m24K1J37n2k75D75
1320a43l15b21B40K35K7Q1J47R3R9J44J1k14k73k20A49A7J12R3i6m07K24D05J29
1297E34a22l90C0P39P5l70A78a52l87K24G39Q64k06o76j34K75K4n4L53L64k16
1276A333k89N68J175O69j83m96n42p04n57O6L99L0k99n6J29l12I5f96m35j65K23
1255a073c09E72M14O8J94J34m65H9b81f7B8c64m35J6b90E07Q57N03m4j63K16L99
1233B275P3j93n9J2k82m54j49K14K43K07L13K84M1k4J38O6k46k21J38R3m74p08
1211A287k56R6j69D56C3b77m15k95J51K57j20j66L90A09a7q17n71Q1K87K55b53
1189E50N20o4l84A94a53m2I3M5e39q38l6g02a77r2l39l22l62j80K78K92l60o93
1167a955o2O42M60k9J72@H69M83J95m5n14B00b33L3pj58J58B42J0d02n54J55b68
1143A22K71K32m0k72L4N15L41m04bm68J24B03P54O02qo36B44B6J17J22R3J42Q2
1120E82p5p2J42L31K88k8m43A53AM40N61K50J50L65K85k47n05j61J13j28k61K34
1098A097O86K54o42D76A54M85Q57N98j26p04m94K57N14p6o65B23b1j86p5E6M87
1077E43JA23d5A57M0B2J72N14J9a02r40l72p2k53k70J11M42M91M76d8A96J6k9
1054A83j0E7a39j47k04m08k93K91a55D62L49M00M30M1l81l32o1j2k4J55K47N3
1032A327o7P4M3k97l26J10J80m37i1a2G98L43E54A8L34P43M22J52J25j18m62l51
1010H63O6J73N5K20M53J46n15F91A68a37k66j88j75l74m15LM20M08c14D82Q72
989A354QC50g06m37j99k82L6M93K70k77m0b98H40N42L6J50L32K16J21J10j68n78
967A601n84k76k46H8g9B70M35J09O6L50L39O4J79N68M07k67m11K21N45j01r13
946A861q86j86L66M10R2l39n85B82I9h2l24j30a85C87L75J56J50J34rj00n6L5
924A072J55K55P3m34C61a57q4L7L5A83P64P17K73r8k75l89l33p6j2k81A47J55
902C02M87J29k39K08R47R07J20n58q61D25d09j24f8B68Q2M96J042P29j15n00n96
881A406B16a614j354k9P19N84N80a17H72L47j06r9k92h6r28m75j30j31p9q0n47
860b456r18j83J160h99b98m0d9E47K28JM69P76J90o24p87C13E1b2I5pb63k38a28
836D70R1B00b3p0l79o00j79M16c21i9j1j19j80r5M8l5j83P9B0P38L38P2J64J24
812A456j56j22L21M44o7n59m97j97j16j82G2b87l33M8a81g3m97n28N5M01K14N2
790c76J25Kk68m7C5P73J83l90B04D0K1K98N21L26jJ36L85j39D38i78p48k07j81
767b114Q7P23d73b18K0B23M46k72b52j18HJ58l5L86O49J14m95C85l9m9j42K7Q0
744B62A10a6B08J22b22p54j07L11j01l15M21C31O89j31l11j77d2o57j52c37A71
722C52K55M20Q5l34j91J40ql55C8a72m47n57j1e71i0j24l33r5R8K04F7M96L15
699H78K57M58L38l13p50C58F9e30p18j7d99B23K66J93K31j58B50G5L01J07H2c40
676d86j27p4b41E31J27a59q42q0L62K64a29E03N75R8j89p3Q6J41K07J87nj03K7
653A454Qk87l07J51L74o9m87l13j49a18n93J69C06L52C4f48K4b81a31H1M51J34
631F66A18e96l62k34l42o2M71N58K74b6D13J76k90A05K66J97B38h6B72P24K48
610A244m17B54dB03N65M10l79c13j008k82K77N40G3J052O77N7j14L8j54o33B10
588c81n21n02j35K83J58k18q8L94M39J25b19D91P51K48K8L49N28K17j59l48n81
567A524p53C47J64K04C56b91k56K05a41l2j50k03k17l1K19K00M3a56B75L46o6
546E55k72G5b28n35l25L95B44Q71M94J78r4l21k84J8K78K72K0l74F33A04C9Q0
524A19a70m39J65C45M91l35h9k03m2l33l95K2L31J62j15r6J40b44A80J27h1n64
502f45j48K70J38j73q9J36j4k48l1L30b23K6F9O36L89k11l32m1m1k33M0N53M89
479A318j4o6L29K72l07m71M8M05J20k70l51l41l02J8L59P7A95f14k31L52C2O68
457G00Q43N44j81n32k46n5m17a45o55j64K72a20E63M66R7q5j63m19a76m17k7j3
435f33k02k0M12B5J56l5D2b63l01b73D88J90a54r24q4L52n3l75j51L9m7Q6M06
412i05K27l22l23K77M95J28M3@B52a55m66b66E58L39q3K41M38k07D09b95j80%
390d75J42B16N65j46Ia02D62L41l32H6O7J62j50d4D5K78J91Pk27a67m08k3J96
367d02pj79P2a18B28Q6k4K0J30L52M90J79l46l63J52L95O4j68N0J10l34D11A93
343D31J56k8K58O30M53m9l07l59m64B86p8J94J1A99M8N55O61K62k80p11a52o70
321h22j87J31J30Q7J11J5r8J50I6M81k26c91n83j94k2J31L93b04H9L14N36L78
299A317k18n23k57l3j42k5M81N90q2C95a92j65l8O5A01N59J15k56k6K57Jl13m9
276C89L61K27j51q0L05L53J4l13n48a73o12j21J91n4m15l64j10o6j00K2R4k9m0
253a777J78K05m7RN25a70E2a81P1D50M33j5l9K24J92m9r0l7j66k08Q2K14k45b6
228f59o4J83M9K0J96hA57N9k3l9J43L28O8B11b80d5G80O43J84J4j56n93A15a09
203B83M22J57O6j01B74d00n0A11L53k18b7A3O3f4j22j0j24j78R8a52r8m04j53
180h07J67L5pe0I41L96n51B42K68O49K58j45k20l64G0d72j41J17J25R3m8l61l83
157a070K16a9G14K11NL9k11B26a07H2L34K0A23d59q38o29K59f90d3j46k22a28
134A23c21p29j49M74b82N8j27p1M7J24K7k37l41q0J65jl26l68k32j84k5M22O88
111g43L50j74k98k30l88m46O8P20d28J23l76n48n30k31K88M05j54o07k51L85M99
90a425L95c48E56L65m02A23J04R5b2l20J61A13O6J50M68K80l58I8b77k07j60K17
68d27B30M16l03b04j78M6q6OgE62L69K17P0m02B2d38J60N1n83n56K72c55b1j00
44a21Qa9l11o94m71J13N24b70A04R1J00M66N91Q6m17k14J97p3B48c91q6Jm03l91
20a270J32L29J4j48m9k42n85l64K38K78k04k22K87L44j59j78M98e46J62k73
0f57
##END=
